Molecule_0
     RDKit          3D

 61 68  0  0  0  0  0  0  0  0999 V2000
    5.3986   -0.7372   -1.4343 O   0  0  0  0  0  0  0  0  0  0  0  0
    4.5502    0.1293   -1.4915 C   0  0  0  0  0  0  0  0  0  0  0  0
    4.6765    1.3061   -2.1965 N   0  0  0  0  0  0  0  0  0  0  0  0
    3.5236    2.1565   -2.1021 C   0  0  0  0  0  0  0  0  0  0  0  0
    2.5984    1.3765   -1.2145 C   0  0  0  0  0  0  0  0  0  0  0  0
    1.3009    1.7042   -0.7853 C   0  0  0  0  0  0  0  0  0  0  0  0
    0.6766    0.7985    0.0470 C   0  0  0  0  0  0  0  0  0  0  0  0
   -0.5567    1.2616    0.4174 N   0  0  0  0  0  0  0  0  0  0  0  0
   -0.8132    2.4239   -0.3164 C   0  0  0  0  0  0  0  0  0  0  0  0
   -1.9608    3.2317   -0.4375 C   0  0  0  0  0  0  0  0  0  0  0  0
   -1.9003    4.3838   -1.2277 C   0  0  0  0  0  0  0  0  0  0  0  0
   -0.7345    4.7316   -1.8944 C   0  0  0  0  0  0  0  0  0  0  0  0
    0.3976    3.9204   -1.8008 C   0  0  0  0  0  0  0  0  0  0  0  0
    0.3641    2.7474   -1.0150 C   0  0  0  0  0  0  0  0  0  0  0  0
   -1.4558    0.6248    1.4093 C   0  0  0  0  0  0  0  0  0  0  0  0
   -0.7151   -0.2599    2.2784 O   0  0  0  0  0  0  0  0  0  0  0  0
   -0.4092   -1.5726    1.8238 C   0  0  0  0  0  0  0  0  0  0  0  0
    0.8787   -1.5700    1.1425 N   0  0  0  0  0  0  0  0  0  0  0  0
    1.3708   -0.5420    0.4053 C   0  0  0  0  0  0  0  0  0  0  0  0
    2.6362   -0.8513   -0.0600 C   0  0  0  0  0  0  0  0  0  0  0  0
    3.2268    0.1444   -0.8518 C   0  0  0  0  0  0  0  0  0  0  0  0
    2.9298   -2.1576    0.4386 C   0  0  0  0  0  0  0  0  0  0  0  0
    4.0333   -3.0311    0.3279 C   0  0  0  0  0  0  0  0  0  0  0  0
    4.0016   -4.2870    0.9427 C   0  0  0  0  0  0  0  0  0  0  0  0
    2.8865   -4.6908    1.6656 C   0  0  0  0  0  0  0  0  0  0  0  0
    1.7763   -3.8534    1.7956 C   0  0  0  0  0  0  0  0  0  0  0  0
    1.8145   -2.5904    1.1777 C   0  0  0  0  0  0  0  0  0  0  0  0
   -1.5371   -2.2899    1.0889 C   0  0  0  0  0  0  0  0  0  0  0  0
   -2.2947   -1.4287    0.0724 C   0  0  0  0  0  0  0  0  0  0  0  0
   -1.5807   -1.4036   -1.2093 N   0  0  0  0  0  0  0  0  0  0  0  0
   -2.3168   -0.7655   -2.2890 C   0  0  0  0  0  0  0  0  0  0  0  0
   -2.6720   -0.0752    0.7303 C   0  0  0  0  0  0  0  0  0  0  0  0
   -3.6847   -0.3357    1.7366 O   0  0  0  0  0  0  0  0  0  0  0  0
   -5.0117   -0.2871    1.2247 C   0  0  0  0  0  0  0  0  0  0  0  0
   -1.9301    1.6872    2.4330 C   0  0  0  0  0  0  0  0  0  0  0  0
    5.5182    1.5080   -2.7185 H   0  0  0  0  0  0  0  0  0  0  0  0
    3.1069    2.3026   -3.1019 H   0  0  0  0  0  0  0  0  0  0  0  0
    3.8173    3.1085   -1.6526 H   0  0  0  0  0  0  0  0  0  0  0  0
   -2.8953    2.9895    0.0554 H   0  0  0  0  0  0  0  0  0  0  0  0
   -2.7803    5.0170   -1.3192 H   0  0  0  0  0  0  0  0  0  0  0  0
   -0.7044    5.6321   -2.5028 H   0  0  0  0  0  0  0  0  0  0  0  0
    1.2957    4.1918   -2.3473 H   0  0  0  0  0  0  0  0  0  0  0  0
   -0.2226   -2.1350    2.7470 H   0  0  0  0  0  0  0  0  0  0  0  0
    4.9153   -2.7386   -0.2348 H   0  0  0  0  0  0  0  0  0  0  0  0
    4.8591   -4.9485    0.8490 H   0  0  0  0  0  0  0  0  0  0  0  0
    2.8778   -5.6711    2.1361 H   0  0  0  0  0  0  0  0  0  0  0  0
    0.9129   -4.1858    2.3629 H   0  0  0  0  0  0  0  0  0  0  0  0
   -2.2682   -2.6043    1.8475 H   0  0  0  0  0  0  0  0  0  0  0  0
   -1.1801   -3.2185    0.6254 H   0  0  0  0  0  0  0  0  0  0  0  0
   -3.2221   -1.9823   -0.1243 H   0  0  0  0  0  0  0  0  0  0  0  0
   -0.6482   -0.9975   -1.1440 H   0  0  0  0  0  0  0  0  0  0  0  0
   -3.3131   -1.2032   -2.4071 H   0  0  0  0  0  0  0  0  0  0  0  0
   -1.7797   -0.9182   -3.2304 H   0  0  0  0  0  0  0  0  0  0  0  0
   -2.4138    0.3129   -2.1383 H   0  0  0  0  0  0  0  0  0  0  0  0
   -3.1137    0.5979   -0.0119 H   0  0  0  0  0  0  0  0  0  0  0  0
   -5.2406    0.7208    0.8653 H   0  0  0  0  0  0  0  0  0  0  0  0
   -5.7003   -0.5285    2.0388 H   0  0  0  0  0  0  0  0  0  0  0  0
   -5.1550   -1.0138    0.4210 H   0  0  0  0  0  0  0  0  0  0  0  0
   -1.0907    2.3068    2.7726 H   0  0  0  0  0  0  0  0  0  0  0  0
   -2.7073    2.3480    2.0460 H   0  0  0  0  0  0  0  0  0  0  0  0
   -2.3355    1.2104    3.3345 H   0  0  0  0  0  0  0  0  0  0  0  0
  1  2  2  0
  2  3  1  0
  3  4  1  0
  4  5  1  0
  5  6  2  0
  6  7  1  0
  7  8  1  0
  8  9  1  0
  9 10  2  0
 10 11  1  0
 11 12  2  0
 12 13  1  0
 13 14  2  0
  8 15  1  0
 15 16  1  0
 16 17  1  0
 17 18  1  0
 18 19  1  0
 19 20  1  0
 20 21  2  0
 20 22  1  0
 22 23  2  0
 23 24  1  0
 24 25  2  0
 25 26  1  0
 26 27  2  0
 17 28  1  0
 28 29  1  0
 29 30  1  0
 30 31  1  0
 29 32  1  0
 32 33  1  0
 33 34  1  0
 15 35  1  0
 14  9  1  0
 14  6  1  0
 19  7  2  0
 21  5  1  0
 21  2  1  0
 27 18  1  0
 27 22  1  0
 32 15  1  0
  3 36  1  0
  4 37  1  0
  4 38  1  0
 10 39  1  0
 11 40  1  0
 12 41  1  0
 13 42  1  0
 17 43  1  0
 23 44  1  0
 24 45  1  0
 25 46  1  0
 26 47  1  0
 28 48  1  0
 28 49  1  0
 29 50  1  0
 30 51  1  0
 31 52  1  0
 31 53  1  0
 31 54  1  0
 32 55  1  0
 34 56  1  0
 34 57  1  0
 34 58  1  0
 35 59  1  0
 35 60  1  0
 35 61  1  0
M  END
>  <smiles>  (1) 
O=C5NCc4c2c3n(c1ccccc12)C8(OC(n6c3c(c45)c7ccccc67)CC(NC)C8OC)C

$$$$
Molecule_1
     RDKit          3D

 61 68  0  0  0  0  0  0  0  0999 V2000
   -5.2202   -1.8299    0.0930 C   0  0  0  0  0  0  0  0  0  0  0  0
   -4.2742   -0.8272    0.5579 N   0  0  0  0  0  0  0  0  0  0  0  0
   -3.2280   -0.4919   -0.4309 C   0  0  2  0  0  0  0  0  0  0  0  0
   -2.3207   -1.6845   -0.7583 C   0  0  0  0  0  0  0  0  0  0  0  0
   -1.0778   -1.2681   -1.5544 C   0  0  1  0  0  0  0  0  0  0  0  0
   -1.0859    0.0860   -1.9972 O   0  0  0  0  0  0  0  0  0  0  0  0
   -1.3750    1.1162   -1.0183 C   0  0  1  0  0  0  0  0  0  0  0  0
   -2.0981    2.1415   -1.9228 C   0  0  0  0  0  0  0  0  0  0  0  0
   -2.3462    0.6511    0.1193 C   0  0  2  0  0  0  0  0  0  0  0  0
   -1.6466    0.1009    1.2597 O   0  0  0  0  0  0  0  0  0  0  0  0
   -1.7441    0.9158    2.4207 C   0  0  0  0  0  0  0  0  0  0  0  0
   -0.0959    1.6207   -0.4875 N   0  0  0  0  0  0  0  0  0  0  0  0
    0.2213    2.9043   -0.0419 C   0  0  0  0  0  0  0  0  0  0  0  0
   -0.5269    4.0936    0.0557 C   0  0  0  0  0  0  0  0  0  0  0  0
    0.0920    5.2549    0.5313 C   0  0  0  0  0  0  0  0  0  0  0  0
    1.4229    5.2474    0.9189 C   0  0  0  0  0  0  0  0  0  0  0  0
    2.1632    4.0668    0.8563 C   0  0  0  0  0  0  0  0  0  0  0  0
    1.5645    2.8779    0.3828 C   0  0  0  0  0  0  0  0  0  0  0  0
    2.0289    1.5391    0.2724 C   0  0  0  0  0  0  0  0  0  0  0  0
    3.2023    0.8307    0.5800 C   0  0  0  0  0  0  0  0  0  0  0  0
    3.3014   -0.5838    0.3979 C   0  0  0  0  0  0  0  0  0  0  0  0
    2.2780   -1.4032   -0.1030 C   0  0  0  0  0  0  0  0  0  0  0  0
    2.0385   -2.7835   -0.3839 C   0  0  0  0  0  0  0  0  0  0  0  0
    2.7991   -3.9654   -0.2497 C   0  0  0  0  0  0  0  0  0  0  0  0
    2.2598   -5.1983   -0.6314 C   0  0  0  0  0  0  0  0  0  0  0  0
    0.9732   -5.2756   -1.1481 C   0  0  0  0  0  0  0  0  0  0  0  0
    0.1925   -4.1272   -1.2968 C   0  0  0  0  0  0  0  0  0  0  0  0
    0.7391   -2.8905   -0.9075 C   0  0  0  0  0  0  0  0  0  0  0  0
    0.2052   -1.6105   -0.9493 N   0  0  0  0  0  0  0  0  0  0  0  0
    1.1155   -0.7332   -0.4470 C   0  0  0  0  0  0  0  0  0  0  0  0
    0.9832    0.8070   -0.2467 C   0  0  0  0  0  0  0  0  0  0  0  0
    4.6463   -0.9814    0.8407 C   0  0  0  0  0  0  0  0  0  0  0  0
    5.1344   -2.0932    0.8491 O   0  0  0  0  0  0  0  0  0  0  0  0
    5.2925    0.1598    1.2628 N   0  0  0  0  0  0  0  0  0  0  0  0
    4.4904    1.3451    1.1512 C   0  0  0  0  0  0  0  0  0  0  0  0
   -4.7518   -2.8106   -0.0315 H   0  0  0  0  0  0  0  0  0  0  0  0
   -6.0201   -1.9400    0.8319 H   0  0  0  0  0  0  0  0  0  0  0  0
   -5.6859   -1.5302   -0.8512 H   0  0  0  0  0  0  0  0  0  0  0  0
   -3.8183   -1.1527    1.4147 H   0  0  0  0  0  0  0  0  0  0  0  0
   -3.7288   -0.1463   -1.3436 H   0  0  0  0  0  0  0  0  0  0  0  0
   -2.8856   -2.4100   -1.3583 H   0  0  0  0  0  0  0  0  0  0  0  0
   -2.0323   -2.2264    0.1521 H   0  0  0  0  0  0  0  0  0  0  0  0
   -1.0868   -1.8465   -2.4877 H   0  0  0  0  0  0  0  0  0  0  0  0
   -2.6646    2.8850   -1.3593 H   0  0  0  0  0  0  0  0  0  0  0  0
   -2.8178    1.6438   -2.5850 H   0  0  0  0  0  0  0  0  0  0  0  0
   -1.3906    2.6600   -2.5809 H   0  0  0  0  0  0  0  0  0  0  0  0
   -2.9705    1.4937    0.4465 H   0  0  0  0  0  0  0  0  0  0  0  0
   -2.7839    0.9714    2.7565 H   0  0  0  0  0  0  0  0  0  0  0  0
   -1.3586    1.9203    2.2314 H   0  0  0  0  0  0  0  0  0  0  0  0
   -1.1471    0.4560    3.2126 H   0  0  0  0  0  0  0  0  0  0  0  0
   -1.5726    4.1496   -0.2145 H   0  0  0  0  0  0  0  0  0  0  0  0
   -0.4818    6.1768    0.5995 H   0  0  0  0  0  0  0  0  0  0  0  0
    1.8883    6.1586    1.2860 H   0  0  0  0  0  0  0  0  0  0  0  0
    3.1977    4.0674    1.1859 H   0  0  0  0  0  0  0  0  0  0  0  0
    3.8083   -3.9303    0.1504 H   0  0  0  0  0  0  0  0  0  0  0  0
    2.8585   -6.0990   -0.5215 H   0  0  0  0  0  0  0  0  0  0  0  0
    0.5699   -6.2418   -1.4417 H   0  0  0  0  0  0  0  0  0  0  0  0
   -0.8101   -4.2055   -1.7039 H   0  0  0  0  0  0  0  0  0  0  0  0
    6.2397    0.1184    1.6128 H   0  0  0  0  0  0  0  0  0  0  0  0
    4.3547    1.7775    2.1459 H   0  0  0  0  0  0  0  0  0  0  0  0
    4.9855    2.0493    0.4778 H   0  0  0  0  0  0  0  0  0  0  0  0
  1  2  1  0
  2  3  1  0
  3  4  1  0
  4  5  1  0
  5  6  1  0
  6  7  1  0
  7  8  1  6
  7  9  1  0
  9 10  1  0
 10 11  1  0
  7 12  1  0
 12 13  1  0
 13 14  2  0
 14 15  1  0
 15 16  2  0
 16 17  1  0
 17 18  2  0
 18 19  1  0
 19 20  2  0
 20 21  1  0
 21 22  2  0
 22 23  1  0
 23 24  2  0
 24 25  1  0
 25 26  2  0
 26 27  1  0
 27 28  2  0
 28 29  1  0
 29 30  1  0
 30 31  2  0
 21 32  1  0
 32 33  2  0
 32 34  1  0
 34 35  1  0
  9  3  1  0
 31 12  1  0
 29  5  1  0
 18 13  1  0
 31 19  1  0
 35 20  1  0
 30 22  1  0
 28 23  1  0
  1 36  1  0
  1 37  1  0
  1 38  1  0
  2 39  1  0
  3 40  1  6
  4 41  1  0
  4 42  1  0
  5 43  1  6
  8 44  1  0
  8 45  1  0
  8 46  1  0
  9 47  1  1
 11 48  1  0
 11 49  1  0
 11 50  1  0
 14 51  1  0
 15 52  1  0
 16 53  1  0
 17 54  1  0
 24 55  1  0
 25 56  1  0
 26 57  1  0
 27 58  1  0
 34 59  1  0
 35 60  1  0
 35 61  1  0
M  END
>  <smiles>  (2) 
CN[C@@H]1C[C@H]2O[C@@](C)([C@@H]1OC)n1c3ccccc3c3c4c(c5c6ccccc6n2c5c31)C(=O)NC4

$$$$
Molecule_2
     RDKit          3D

 59 62  0  0  0  0  0  0  0  0999 V2000
   11.0357    0.8748   -0.6353 C   0  0  0  0  0  0  0  0  0  0  0  0
    9.5336    0.9903   -0.5647 C   0  0  0  0  0  0  0  0  0  0  0  0
    8.9382    1.8288   -1.2326 O   0  0  0  0  0  0  0  0  0  0  0  0
    8.9735    0.0989    0.3167 N   0  0  0  0  0  0  0  0  0  0  0  0
    7.6277   -0.0638    0.6462 C   0  0  0  0  0  0  0  0  0  0  0  0
    6.5964    0.6993    0.1259 C   0  0  0  0  0  0  0  0  0  0  0  0
    5.2960    0.4140    0.5336 C   0  0  0  0  0  0  0  0  0  0  0  0
    4.2905    1.2055    0.0232 O   0  0  0  0  0  0  0  0  0  0  0  0
    3.1590    0.5556   -0.4204 C   0  0  0  0  0  0  0  0  0  0  0  0
    3.2248   -0.4443   -1.3954 C   0  0  0  0  0  0  0  0  0  0  0  0
    2.0647   -1.0777   -1.8558 C   0  0  0  0  0  0  0  0  0  0  0  0
    0.8463   -0.6552   -1.3068 C   0  0  0  0  0  0  0  0  0  0  0  0
    0.7657    0.3535   -0.3530 C   0  0  0  0  0  0  0  0  0  0  0  0
    1.9336    0.9845    0.0966 C   0  0  0  0  0  0  0  0  0  0  0  0
   -0.5335    0.5768    0.0140 N   0  0  0  0  0  0  0  0  0  0  0  0
   -1.2730   -0.2580   -0.6837 C   0  0  0  0  0  0  0  0  0  0  0  0
   -2.6181   -0.4299   -0.6780 N   0  0  0  0  0  0  0  0  0  0  0  0
   -3.5891    0.2777    0.0665 C   0  0  0  0  0  0  0  0  0  0  0  0
   -3.3023    1.3463    0.9149 C   0  0  0  0  0  0  0  0  0  0  0  0
   -4.3161    1.9884    1.6269 C   0  0  0  0  0  0  0  0  0  0  0  0
   -5.6422    1.5714    1.5062 C   0  0  0  0  0  0  0  0  0  0  0  0
   -5.9865    0.5013    0.6706 C   0  0  0  0  0  0  0  0  0  0  0  0
   -7.4343    0.0064    0.5084 C   0  0  0  0  0  0  0  0  0  0  0  0
   -7.8639    0.1340   -0.9691 C   0  0  0  0  0  0  0  0  0  0  0  0
   -8.4622    0.7943    1.3521 C   0  0  0  0  0  0  0  0  0  0  0  0
   -7.5299   -1.4731    0.9401 C   0  0  0  0  0  0  0  0  0  0  0  0
   -4.9363   -0.1273   -0.0369 C   0  0  0  0  0  0  0  0  0  0  0  0
   -0.4647   -1.0282   -1.5031 N   0  0  0  0  0  0  0  0  0  0  0  0
   -0.9196   -2.0503   -2.4145 C   0  0  0  0  0  0  0  0  0  0  0  0
    5.0584   -0.5862    1.4686 C   0  0  0  0  0  0  0  0  0  0  0  0
    6.1490   -1.2914    1.9345 C   0  0  0  0  0  0  0  0  0  0  0  0
    7.4204   -1.0568    1.5404 N   0  0  0  0  0  0  0  0  0  0  0  0
   11.3655    1.0874   -1.6564 H   0  0  0  0  0  0  0  0  0  0  0  0
   11.3730   -0.1326   -0.3748 H   0  0  0  0  0  0  0  0  0  0  0  0
   11.4839    1.5964    0.0526 H   0  0  0  0  0  0  0  0  0  0  0  0
    9.5654   -0.5499    0.8174 H   0  0  0  0  0  0  0  0  0  0  0  0
    6.7644    1.5003   -0.5828 H   0  0  0  0  0  0  0  0  0  0  0  0
    4.1869   -0.7337   -1.8123 H   0  0  0  0  0  0  0  0  0  0  0  0
    2.1231   -1.8546   -2.6098 H   0  0  0  0  0  0  0  0  0  0  0  0
    1.8776    1.7775    0.8328 H   0  0  0  0  0  0  0  0  0  0  0  0
   -3.0357   -1.1305   -1.2745 H   0  0  0  0  0  0  0  0  0  0  0  0
   -2.2863    1.7073    1.0398 H   0  0  0  0  0  0  0  0  0  0  0  0
   -4.0656    2.8206    2.2801 H   0  0  0  0  0  0  0  0  0  0  0  0
   -6.3883    2.1075    2.0851 H   0  0  0  0  0  0  0  0  0  0  0  0
   -8.9054   -0.1797   -1.1063 H   0  0  0  0  0  0  0  0  0  0  0  0
   -7.7793    1.1706   -1.3163 H   0  0  0  0  0  0  0  0  0  0  0  0
   -7.2530   -0.4862   -1.6340 H   0  0  0  0  0  0  0  0  0  0  0  0
   -9.4767    0.4052    1.2034 H   0  0  0  0  0  0  0  0  0  0  0  0
   -8.2440    0.7225    2.4240 H   0  0  0  0  0  0  0  0  0  0  0  0
   -8.4813    1.8554    1.0775 H   0  0  0  0  0  0  0  0  0  0  0  0
   -6.9143   -2.1288    0.3146 H   0  0  0  0  0  0  0  0  0  0  0  0
   -7.2000   -1.6032    1.9776 H   0  0  0  0  0  0  0  0  0  0  0  0
   -8.5609   -1.8395    0.8694 H   0  0  0  0  0  0  0  0  0  0  0  0
   -5.1749   -0.9634   -0.6902 H   0  0  0  0  0  0  0  0  0  0  0  0
   -1.4618   -2.8088   -1.8436 H   0  0  0  0  0  0  0  0  0  0  0  0
   -0.0724   -2.5182   -2.9187 H   0  0  0  0  0  0  0  0  0  0  0  0
   -1.5729   -1.5856   -3.1576 H   0  0  0  0  0  0  0  0  0  0  0  0
    4.0617   -0.8072    1.8314 H   0  0  0  0  0  0  0  0  0  0  0  0
    6.0294   -2.0885    2.6634 H   0  0  0  0  0  0  0  0  0  0  0  0
  1  2  1  0
  2  3  2  0
  2  4  1  0
  4  5  1  0
  5  6  2  0
  6  7  1  0
  7  8  1  0
  8  9  1  0
  9 10  2  0
 10 11  1  0
 11 12  2  0
 12 13  1  0
 13 14  2  0
 13 15  1  0
 15 16  2  0
 16 17  1  0
 17 18  1  0
 18 19  2  0
 19 20  1  0
 20 21  2  0
 21 22  1  0
 22 23  1  0
 23 24  1  0
 23 25  1  0
 23 26  1  0
 22 27  2  0
 16 28  1  0
 28 29  1  0
  7 30  2  0
 30 31  1  0
 31 32  2  0
 32  5  1  0
 14  9  1  0
 27 18  1  0
 28 12  1  0
  1 33  1  0
  1 34  1  0
  1 35  1  0
  4 36  1  0
  6 37  1  0
 10 38  1  0
 11 39  1  0
 14 40  1  0
 17 41  1  0
 19 42  1  0
 20 43  1  0
 21 44  1  0
 24 45  1  0
 24 46  1  0
 24 47  1  0
 25 48  1  0
 25 49  1  0
 25 50  1  0
 26 51  1  0
 26 52  1  0
 26 53  1  0
 27 54  1  0
 29 55  1  0
 29 56  1  0
 29 57  1  0
 30 58  1  0
 31 59  1  0
M  END
>  <smiles>  (3) 
CC(=O)Nc1cc(Oc2ccc3c(c2)nc(Nc2cccc(C(C)(C)C)c2)n3C)ccn1

$$$$
Molecule_3
     RDKit          3D

 57 61  0  0  0  0  0  0  0  0999 V2000
   -4.0058    2.7058   -1.9778 C   0  0  0  0  0  0  0  0  0  0  0  0
   -4.0530    2.7205   -0.4938 C   0  0  0  0  0  0  0  0  0  0  0  0
   -5.0352    3.2240    0.2280 N   0  0  0  0  0  0  0  0  0  0  0  0
   -4.6985    3.0002    1.5336 C   0  0  0  0  0  0  0  0  0  0  0  0
   -3.4893    2.3565    1.6183 C   0  0  0  0  0  0  0  0  0  0  0  0
   -3.0715    2.1980    0.3218 N   0  0  0  0  0  0  0  0  0  0  0  0
   -1.8207    1.5676   -0.1042 C   0  0  1  0  0  0  0  0  0  0  0  0
   -0.6031    2.1415    0.6406 C   0  0  0  0  0  0  0  0  0  0  0  0
    0.6798    1.5545    0.0562 C   0  0  1  0  0  0  0  0  0  0  0  0
    1.9168    1.8059    0.9122 C   0  0  0  0  0  0  0  0  0  0  0  0
    2.7968    0.7138    0.4922 N   0  0  0  0  0  0  0  0  0  0  0  0
    3.9648    0.5837    1.3677 C   0  0  0  0  0  0  0  0  0  0  0  0
    4.9653   -0.4327    0.8608 C   0  0  0  0  0  0  0  0  0  0  0  0
    5.3024   -1.5549    1.6323 C   0  0  0  0  0  0  0  0  0  0  0  0
    6.2291   -2.4877    1.1611 C   0  0  0  0  0  0  0  0  0  0  0  0
    6.8286   -2.3085   -0.0854 C   0  0  0  0  0  0  0  0  0  0  0  0
    6.4992   -1.1963   -0.8574 C   0  0  0  0  0  0  0  0  0  0  0  0
    7.2381   -0.9762   -2.3961 Cl  0  0  0  0  0  0  0  0  0  0  0  0
    5.5762   -0.2614   -0.3918 C   0  0  0  0  0  0  0  0  0  0  0  0
    1.9410   -0.4785    0.4907 C   0  0  0  0  0  0  0  0  0  0  0  0
    0.6344    0.0290   -0.1278 C   0  0  1  0  0  0  0  0  0  0  0  0
   -0.6035   -0.6161    0.4974 C   0  0  0  0  0  0  0  0  0  0  0  0
   -1.9112    0.0192   -0.0113 C   0  0  2  0  0  0  0  0  0  0  0  0
   -2.1885   -0.4524   -1.3448 O   0  0  0  0  0  0  0  0  0  0  0  0
   -2.9099   -1.6265   -1.4179 C   0  0  0  0  0  0  0  0  0  0  0  0
   -3.3216   -2.0117   -2.6840 C   0  0  0  0  0  0  0  0  0  0  0  0
   -4.0417   -3.1948   -2.8134 C   0  0  0  0  0  0  0  0  0  0  0  0
   -4.3194   -3.9472   -1.6780 C   0  0  0  0  0  0  0  0  0  0  0  0
   -3.8588   -3.4833   -0.4561 C   0  0  0  0  0  0  0  0  0  0  0  0
   -3.1544   -2.3411   -0.3006 N   0  0  0  0  0  0  0  0  0  0  0  0
   -4.9303    3.1201   -2.3926 H   0  0  0  0  0  0  0  0  0  0  0  0
   -3.1723    3.3117   -2.3454 H   0  0  0  0  0  0  0  0  0  0  0  0
   -3.8980    1.6848   -2.3553 H   0  0  0  0  0  0  0  0  0  0  0  0
   -5.3469    3.3088    2.3428 H   0  0  0  0  0  0  0  0  0  0  0  0
   -2.9199    2.0102    2.4688 H   0  0  0  0  0  0  0  0  0  0  0  0
   -1.6951    1.8499   -1.1578 H   0  0  0  0  0  0  0  0  0  0  0  0
   -0.5798    3.2351    0.5532 H   0  0  0  0  0  0  0  0  0  0  0  0
   -0.6685    1.9204    1.7132 H   0  0  0  0  0  0  0  0  0  0  0  0
    0.8460    2.0045   -0.9339 H   0  0  0  0  0  0  0  0  0  0  0  0
    2.3541    2.7876    0.7031 H   0  0  0  0  0  0  0  0  0  0  0  0
    1.6802    1.7460    1.9822 H   0  0  0  0  0  0  0  0  0  0  0  0
    3.6607    0.3394    2.3942 H   0  0  0  0  0  0  0  0  0  0  0  0
    4.4902    1.5463    1.4256 H   0  0  0  0  0  0  0  0  0  0  0  0
    4.8420   -1.7115    2.6056 H   0  0  0  0  0  0  0  0  0  0  0  0
    6.4827   -3.3551    1.7655 H   0  0  0  0  0  0  0  0  0  0  0  0
    7.5481   -3.0370   -0.4488 H   0  0  0  0  0  0  0  0  0  0  0  0
    5.3169    0.6002   -1.0032 H   0  0  0  0  0  0  0  0  0  0  0  0
    2.3667   -1.2887   -0.1106 H   0  0  0  0  0  0  0  0  0  0  0  0
    1.7746   -0.8537    1.5086 H   0  0  0  0  0  0  0  0  0  0  0  0
    0.6412   -0.1874   -1.2052 H   0  0  0  0  0  0  0  0  0  0  0  0
   -0.5636   -0.5054    1.5889 H   0  0  0  0  0  0  0  0  0  0  0  0
   -0.5837   -1.6919    0.2890 H   0  0  0  0  0  0  0  0  0  0  0  0
   -2.7270   -0.2495    0.6727 H   0  0  0  0  0  0  0  0  0  0  0  0
   -3.0882   -1.4023   -3.5492 H   0  0  0  0  0  0  0  0  0  0  0  0
   -4.3837   -3.5248   -3.7899 H   0  0  0  0  0  0  0  0  0  0  0  0
   -4.8813   -4.8724   -1.7426 H   0  0  0  0  0  0  0  0  0  0  0  0
   -4.0512   -4.0364    0.4589 H   0  0  0  0  0  0  0  0  0  0  0  0
  1  2  1  0
  2  3  2  0
  3  4  1  0
  4  5  2  0
  5  6  1  0
  6  7  1  0
  7  8  1  0
  8  9  1  0
  9 10  1  0
 10 11  1  0
 11 12  1  0
 12 13  1  0
 13 14  2  0
 14 15  1  0
 15 16  2  0
 16 17  1  0
 17 18  1  0
 17 19  2  0
 11 20  1  0
 20 21  1  0
 21 22  1  0
 22 23  1  0
 23 24  1  0
 24 25  1  0
 25 26  2  0
 26 27  1  0
 27 28  2  0
 28 29  1  0
 29 30  2  0
  6  2  1  0
 23  7  1  0
 30 25  1  0
 21  9  1  0
 19 13  1  0
  1 31  1  0
  1 32  1  0
  1 33  1  0
  4 34  1  0
  5 35  1  0
  7 36  1  6
  8 37  1  0
  8 38  1  0
  9 39  1  6
 10 40  1  0
 10 41  1  0
 12 42  1  0
 12 43  1  0
 14 44  1  0
 15 45  1  0
 16 46  1  0
 19 47  1  0
 20 48  1  0
 20 49  1  0
 21 50  1  6
 22 51  1  0
 22 52  1  0
 23 53  1  1
 26 54  1  0
 27 55  1  0
 28 56  1  0
 29 57  1  0
M  END
>  <smiles>  (4) 
Cc1nccn1[C@H]1C[C@H]2CN(Cc3cccc(Cl)c3)C[C@H]2C[C@@H]1Oc1ccccn1

$$$$
Molecule_4
     RDKit          3D

 55 56  0  0  0  0  0  0  0  0999 V2000
    0.2966   -1.7421    1.4581 C   0  0  0  0  0  0  0  0  0  0  0  0
    0.3872   -2.0786   -0.0208 C   0  0  0  0  0  0  0  0  0  0  0  0
    0.1508   -0.9154   -1.0093 C   0  0  1  0  0  0  0  0  0  0  0  0
   -1.2853   -0.8616   -1.5975 C   0  0  0  0  0  0  0  0  0  0  0  0
   -1.4757   -0.5259   -2.7663 O   0  0  0  0  0  0  0  0  0  0  0  0
   -2.3212   -1.1648   -0.7414 N   0  0  0  0  0  0  0  0  0  0  0  0
   -3.7160   -1.0724   -1.1604 C   0  0  0  0  0  0  0  0  0  0  0  0
   -4.5473   -2.1324   -0.4438 C   0  0  0  0  0  0  0  0  0  0  0  0
   -4.2696    0.3242   -0.8866 C   0  0  0  0  0  0  0  0  0  0  0  0
    0.7122    0.3802   -0.5617 N   0  0  0  0  0  0  0  0  0  0  0  0
   -0.1686    1.3168    0.1513 C   0  0  0  0  0  0  0  0  0  0  0  0
   -0.8547    2.3731   -0.6939 C   0  0  0  0  0  0  0  0  0  0  0  0
   -0.5262    2.5868   -2.0429 C   0  0  0  0  0  0  0  0  0  0  0  0
   -1.1481    3.5911   -2.7924 C   0  0  0  0  0  0  0  0  0  0  0  0
   -2.1077    4.4089   -2.2083 C   0  0  0  0  0  0  0  0  0  0  0  0
   -2.4506    4.2187   -0.8731 C   0  0  0  0  0  0  0  0  0  0  0  0
   -1.8291    3.2150   -0.1202 C   0  0  0  0  0  0  0  0  0  0  0  0
   -2.3212    3.0507    1.5402 Cl  0  0  0  0  0  0  0  0  0  0  0  0
    2.0466    0.7736   -0.7242 C   0  0  0  0  0  0  0  0  0  0  0  0
    2.4263    1.8770   -0.3197 O   0  0  0  0  0  0  0  0  0  0  0  0
    3.0028   -0.1653   -1.4615 C   0  0  0  0  0  0  0  0  0  0  0  0
    4.7172   -0.0361   -0.8492 S   0  0  0  0  0  0  0  0  0  0  0  0
    4.4939   -0.7504    0.7685 C   0  0  0  0  0  0  0  0  0  0  0  0
    4.2681    0.0733    1.8752 C   0  0  0  0  0  0  0  0  0  0  0  0
    4.0869   -0.4854    3.1440 C   0  0  0  0  0  0  0  0  0  0  0  0
    4.1442   -1.8681    3.3120 C   0  0  0  0  0  0  0  0  0  0  0  0
    4.3827   -2.6940    2.2117 C   0  0  0  0  0  0  0  0  0  0  0  0
    4.5582   -2.1363    0.9421 C   0  0  0  0  0  0  0  0  0  0  0  0
    1.0474   -0.9989    1.7366 H   0  0  0  0  0  0  0  0  0  0  0  0
   -0.6880   -1.3722    1.7434 H   0  0  0  0  0  0  0  0  0  0  0  0
    0.4883   -2.6376    2.0569 H   0  0  0  0  0  0  0  0  0  0  0  0
    1.3928   -2.4811   -0.1883 H   0  0  0  0  0  0  0  0  0  0  0  0
   -0.2964   -2.9077   -0.2429 H   0  0  0  0  0  0  0  0  0  0  0  0
    0.7203   -1.1996   -1.9010 H   0  0  0  0  0  0  0  0  0  0  0  0
   -2.1435   -1.2102    0.2473 H   0  0  0  0  0  0  0  0  0  0  0  0
   -3.7695   -1.2598   -2.2373 H   0  0  0  0  0  0  0  0  0  0  0  0
   -4.4840   -2.0191    0.6487 H   0  0  0  0  0  0  0  0  0  0  0  0
   -4.1897   -3.1378   -0.6903 H   0  0  0  0  0  0  0  0  0  0  0  0
   -5.6037   -2.0689   -0.7307 H   0  0  0  0  0  0  0  0  0  0  0  0
   -5.2991    0.4112   -1.2546 H   0  0  0  0  0  0  0  0  0  0  0  0
   -3.6676    1.0900   -1.3878 H   0  0  0  0  0  0  0  0  0  0  0  0
   -4.2707    0.5463    0.1857 H   0  0  0  0  0  0  0  0  0  0  0  0
   -0.9161    0.7308    0.6890 H   0  0  0  0  0  0  0  0  0  0  0  0
    0.4255    1.8344    0.9153 H   0  0  0  0  0  0  0  0  0  0  0  0
    0.2202    1.9753   -2.5364 H   0  0  0  0  0  0  0  0  0  0  0  0
   -0.8733    3.7344   -3.8308 H   0  0  0  0  0  0  0  0  0  0  0  0
   -2.5888    5.1937   -2.7897 H   0  0  0  0  0  0  0  0  0  0  0  0
   -3.2025    4.8624   -0.4198 H   0  0  0  0  0  0  0  0  0  0  0  0
    2.7208   -1.2106   -1.3790 H   0  0  0  0  0  0  0  0  0  0  0  0
    2.9885    0.1130   -2.5202 H   0  0  0  0  0  0  0  0  0  0  0  0
    4.2248    1.1548    1.7562 H   0  0  0  0  0  0  0  0  0  0  0  0
    3.9010    0.1599    3.9998 H   0  0  0  0  0  0  0  0  0  0  0  0
    4.0153   -2.3016    4.2970 H   0  0  0  0  0  0  0  0  0  0  0  0
    4.4403   -3.7708    2.3442 H   0  0  0  0  0  0  0  0  0  0  0  0
    4.7553   -2.7908    0.0938 H   0  0  0  0  0  0  0  0  0  0  0  0
  1  2  1  0
  2  3  1  0
  3  4  1  0
  4  5  2  0
  4  6  1  0
  6  7  1  0
  7  8  1  0
  7  9  1  0
  3 10  1  0
 10 11  1  0
 11 12  1  0
 12 13  2  0
 13 14  1  0
 14 15  2  0
 15 16  1  0
 16 17  2  0
 17 18  1  0
 10 19  1  0
 19 20  2  0
 19 21  1  0
 21 22  1  0
 22 23  1  0
 23 24  2  0
 24 25  1  0
 25 26  2  0
 26 27  1  0
 27 28  2  0
 17 12  1  0
 28 23  1  0
  1 29  1  0
  1 30  1  0
  1 31  1  0
  2 32  1  0
  2 33  1  0
  3 34  1  6
  6 35  1  0
  7 36  1  0
  8 37  1  0
  8 38  1  0
  8 39  1  0
  9 40  1  0
  9 41  1  0
  9 42  1  0
 11 43  1  0
 11 44  1  0
 13 45  1  0
 14 46  1  0
 15 47  1  0
 16 48  1  0
 21 49  1  0
 21 50  1  0
 24 51  1  0
 25 52  1  0
 26 53  1  0
 27 54  1  0
 28 55  1  0
M  END
>  <smiles>  (5) 
CC[C@@H](C(=O)NC(C)C)N(Cc1ccccc1Cl)C(=O)CSc1ccccc1

$$$$
Molecule_5
     RDKit          3D

 49 50  0  0  0  0  0  0  0  0999 V2000
    6.2874    3.0094   -0.9021 C   0  0  0  0  0  0  0  0  0  0  0  0
    6.3364    2.3814    0.3741 O   0  0  0  0  0  0  0  0  0  0  0  0
    6.8576    1.0520    0.3075 C   0  0  0  0  0  0  0  0  0  0  0  0
    5.7951    0.0608   -0.0979 C   0  0  0  0  0  0  0  0  0  0  0  0
    6.0242   -0.8484   -1.1358 C   0  0  0  0  0  0  0  0  0  0  0  0
    5.0393   -1.7688   -1.4897 C   0  0  0  0  0  0  0  0  0  0  0  0
    3.8191   -1.7957   -0.8084 C   0  0  0  0  0  0  0  0  0  0  0  0
    3.5720   -0.9035    0.2348 C   0  0  0  0  0  0  0  0  0  0  0  0
    2.3791   -0.8734    0.9871 N   0  0  0  0  0  0  0  0  0  0  0  0
    1.2464   -1.6589    0.8111 C   0  0  0  0  0  0  0  0  0  0  0  0
    1.0724   -2.4834   -0.0786 O   0  0  0  0  0  0  0  0  0  0  0  0
    0.1865   -1.3741    1.8847 C   0  0  0  0  0  0  0  0  0  0  0  0
   -0.9726   -2.1981    1.7859 O   0  0  0  0  0  0  0  0  0  0  0  0
   -2.0385   -1.5027    1.2851 C   0  0  0  0  0  0  0  0  0  0  0  0
   -2.1726   -1.3754   -0.0936 C   0  0  0  0  0  0  0  0  0  0  0  0
   -3.2706   -0.6930   -0.6273 C   0  0  0  0  0  0  0  0  0  0  0  0
   -4.2721   -0.1399    0.1992 C   0  0  0  0  0  0  0  0  0  0  0  0
   -5.4668    0.6013   -0.4274 C   0  0  0  0  0  0  0  0  0  0  0  0
   -6.5326    1.0486    0.5984 C   0  0  0  0  0  0  0  0  0  0  0  0
   -4.9590    1.8672   -1.1465 C   0  0  0  0  0  0  0  0  0  0  0  0
   -6.1804   -0.3125   -1.4479 C   0  0  0  0  0  0  0  0  0  0  0  0
   -4.1200   -0.2958    1.5894 C   0  0  0  0  0  0  0  0  0  0  0  0
   -3.0185   -0.9779    2.1267 C   0  0  0  0  0  0  0  0  0  0  0  0
   -2.8937   -1.1450    4.0124 Br  0  0  0  0  0  0  0  0  0  0  0  0
    4.5671    0.0200    0.5836 C   0  0  0  0  0  0  0  0  0  0  0  0
    5.6491    2.4523   -1.5917 H   0  0  0  0  0  0  0  0  0  0  0  0
    5.8706    4.0126   -0.7781 H   0  0  0  0  0  0  0  0  0  0  0  0
    7.2952    3.1061   -1.3164 H   0  0  0  0  0  0  0  0  0  0  0  0
    7.7274    1.0171   -0.3581 H   0  0  0  0  0  0  0  0  0  0  0  0
    7.2108    0.7849    1.3096 H   0  0  0  0  0  0  0  0  0  0  0  0
    6.9669   -0.8488   -1.6770 H   0  0  0  0  0  0  0  0  0  0  0  0
    5.2180   -2.4747   -2.2980 H   0  0  0  0  0  0  0  0  0  0  0  0
    3.0861   -2.5347   -1.1151 H   0  0  0  0  0  0  0  0  0  0  0  0
    2.3534   -0.1923    1.7351 H   0  0  0  0  0  0  0  0  0  0  0  0
   -0.0563   -0.3031    1.8695 H   0  0  0  0  0  0  0  0  0  0  0  0
    0.6479   -1.5894    2.8555 H   0  0  0  0  0  0  0  0  0  0  0  0
   -1.4296   -1.8047   -0.7575 H   0  0  0  0  0  0  0  0  0  0  0  0
   -3.3329   -0.6034   -1.7101 H   0  0  0  0  0  0  0  0  0  0  0  0
   -7.3722    1.5511    0.1031 H   0  0  0  0  0  0  0  0  0  0  0  0
   -6.1202    1.7573    1.3281 H   0  0  0  0  0  0  0  0  0  0  0  0
   -6.9461    0.1942    1.1477 H   0  0  0  0  0  0  0  0  0  0  0  0
   -5.7871    2.4243   -1.6002 H   0  0  0  0  0  0  0  0  0  0  0  0
   -4.4505    2.5382   -0.4463 H   0  0  0  0  0  0  0  0  0  0  0  0
   -4.2528    1.6332   -1.9461 H   0  0  0  0  0  0  0  0  0  0  0  0
   -6.5061   -1.2491   -0.9770 H   0  0  0  0  0  0  0  0  0  0  0  0
   -5.5359   -0.5760   -2.2968 H   0  0  0  0  0  0  0  0  0  0  0  0
   -7.0672    0.1747   -1.8656 H   0  0  0  0  0  0  0  0  0  0  0  0
   -4.8552    0.1043    2.2762 H   0  0  0  0  0  0  0  0  0  0  0  0
    4.4014    0.7316    1.3912 H   0  0  0  0  0  0  0  0  0  0  0  0
  1  2  1  0
  2  3  1  0
  3  4  1  0
  4  5  2  0
  5  6  1  0
  6  7  2  0
  7  8  1  0
  8  9  1  0
  9 10  1  0
 10 11  2  0
 10 12  1  0
 12 13  1  0
 13 14  1  0
 14 15  2  0
 15 16  1  0
 16 17  2  0
 17 18  1  0
 18 19  1  0
 18 20  1  0
 18 21  1  0
 17 22  1  0
 22 23  2  0
 23 24  1  0
  8 25  2  0
 25  4  1  0
 23 14  1  0
  1 26  1  0
  1 27  1  0
  1 28  1  0
  3 29  1  0
  3 30  1  0
  5 31  1  0
  6 32  1  0
  7 33  1  0
  9 34  1  0
 12 35  1  0
 12 36  1  0
 15 37  1  0
 16 38  1  0
 19 39  1  0
 19 40  1  0
 19 41  1  0
 20 42  1  0
 20 43  1  0
 20 44  1  0
 21 45  1  0
 21 46  1  0
 21 47  1  0
 22 48  1  0
 25 49  1  0
M  END
>  <smiles>  (6) 
COCc1cccc(NC(=O)COc2ccc(C(C)(C)C)cc2Br)c1

$$$$
Molecule_6
     RDKit          3D

 46 49  0  0  0  0  0  0  0  0999 V2000
   -4.7537   -0.5704   -0.8455 O   0  0  0  0  0  0  0  0  0  0  0  0
   -3.8719   -0.8313   -0.0351 C   0  0  0  0  0  0  0  0  0  0  0  0
   -2.5413   -0.4921   -0.2557 N   0  0  0  0  0  0  0  0  0  0  0  0
   -1.7610   -0.7417   -1.3968 C   0  0  0  0  0  0  0  0  0  0  0  0
   -2.2555   -1.6435   -2.7268 S   0  0  0  0  0  0  0  0  0  0  0  0
   -0.4652   -0.1802   -1.2007 N   0  0  0  0  0  0  0  0  0  0  0  0
    0.6039   -0.7541   -1.8048 N   0  0  0  0  0  0  0  0  0  0  0  0
    1.6766   -0.1351   -1.3187 C   0  0  0  0  0  0  0  0  0  0  0  0
    2.9830   -0.3882   -1.5855 N   0  0  0  0  0  0  0  0  0  0  0  0
    3.6070   -1.3630   -2.3935 C   0  0  0  0  0  0  0  0  0  0  0  0
    2.9073   -2.3038   -3.1711 C   0  0  0  0  0  0  0  0  0  0  0  0
    3.5821   -3.2671   -3.9282 C   0  0  0  0  0  0  0  0  0  0  0  0
    4.9729   -3.3057   -3.9241 C   0  0  0  0  0  0  0  0  0  0  0  0
    5.6887   -2.3898   -3.1650 C   0  0  0  0  0  0  0  0  0  0  0  0
    5.0109   -1.4326   -2.4022 C   0  0  0  0  0  0  0  0  0  0  0  0
    1.3002    0.8966   -0.4275 C   0  0  0  0  0  0  0  0  0  0  0  0
   -0.0758    0.8805   -0.3746 C   0  0  0  0  0  0  0  0  0  0  0  0
   -0.9829    1.6926    0.2404 N   0  0  0  0  0  0  0  0  0  0  0  0
   -0.7308    2.6273    1.2685 C   0  0  0  0  0  0  0  0  0  0  0  0
    0.2343    2.4236    2.2639 C   0  0  0  0  0  0  0  0  0  0  0  0
    0.4519    3.3829    3.2602 C   0  0  0  0  0  0  0  0  0  0  0  0
   -0.2908    4.5616    3.2710 C   0  0  0  0  0  0  0  0  0  0  0  0
   -1.2541    4.7812    2.2884 C   0  0  0  0  0  0  0  0  0  0  0  0
   -1.4729    3.8208    1.2964 C   0  0  0  0  0  0  0  0  0  0  0  0
   -4.1297   -1.3273    1.3042 C   0  0  0  0  0  0  0  0  0  0  0  0
   -3.3146   -1.9180    2.2549 C   0  0  0  0  0  0  0  0  0  0  0  0
   -4.1325   -2.2032    3.3751 C   0  0  0  0  0  0  0  0  0  0  0  0
   -5.3908   -1.7571    3.0526 C   0  0  0  0  0  0  0  0  0  0  0  0
   -5.4020   -1.2304    1.8029 O   0  0  0  0  0  0  0  0  0  0  0  0
   -2.0310   -0.2406    0.5857 H   0  0  0  0  0  0  0  0  0  0  0  0
    3.6665    0.2465   -1.1887 H   0  0  0  0  0  0  0  0  0  0  0  0
    1.8221   -2.3087   -3.1982 H   0  0  0  0  0  0  0  0  0  0  0  0
    3.0105   -3.9840   -4.5156 H   0  0  0  0  0  0  0  0  0  0  0  0
    5.4905   -4.0542   -4.5081 H   0  0  0  0  0  0  0  0  0  0  0  0
    6.7751   -2.4202   -3.1552 H   0  0  0  0  0  0  0  0  0  0  0  0
    5.5969   -0.7416   -1.8035 H   0  0  0  0  0  0  0  0  0  0  0  0
    1.9530    1.5934    0.0755 H   0  0  0  0  0  0  0  0  0  0  0  0
   -1.8516    1.9043   -0.2574 H   0  0  0  0  0  0  0  0  0  0  0  0
    0.8097    1.5034    2.2993 H   0  0  0  0  0  0  0  0  0  0  0  0
    1.1922    3.2068    4.0362 H   0  0  0  0  0  0  0  0  0  0  0  0
   -0.1240    5.3053    4.0439 H   0  0  0  0  0  0  0  0  0  0  0  0
   -1.8373    5.6994    2.2945 H   0  0  0  0  0  0  0  0  0  0  0  0
   -2.2249    4.0217    0.5395 H   0  0  0  0  0  0  0  0  0  0  0  0
   -2.2586   -2.1360    2.1581 H   0  0  0  0  0  0  0  0  0  0  0  0
   -3.8407   -2.6759    4.3026 H   0  0  0  0  0  0  0  0  0  0  0  0
   -6.3415   -1.7516    3.5686 H   0  0  0  0  0  0  0  0  0  0  0  0
  1  2  2  0
  2  3  1  0
  3  4  1  0
  4  5  2  0
  4  6  1  0
  6  7  1  0
  7  8  2  0
  8  9  1  0
  9 10  1  0
 10 11  2  0
 11 12  1  0
 12 13  2  0
 13 14  1  0
 14 15  2  0
  8 16  1  0
 16 17  2  0
 17 18  1  0
 18 19  1  0
 19 20  2  0
 20 21  1  0
 21 22  2  0
 22 23  1  0
 23 24  2  0
  2 25  1  0
 25 26  2  0
 26 27  1  0
 27 28  2  0
 28 29  1  0
 17  6  1  0
 24 19  1  0
 29 25  1  0
 15 10  1  0
  3 30  1  0
  9 31  1  0
 11 32  1  0
 12 33  1  0
 13 34  1  0
 14 35  1  0
 15 36  1  0
 16 37  1  0
 18 38  1  0
 20 39  1  0
 21 40  1  0
 22 41  1  0
 23 42  1  0
 24 43  1  0
 26 44  1  0
 27 45  1  0
 28 46  1  0
M  END
>  <smiles>  (7) 
O=C(NC(=S)n1nc(Nc2ccccc2)cc1Nc1ccccc1)c1ccco1

$$$$
Molecule_7
     RDKit          3D

 52 55  0  0  0  0  0  0  0  0999 V2000
    6.2781   -2.9280    0.6763 C   0  0  0  0  0  0  0  0  0  0  0  0
    5.2168   -1.9754    1.1415 C   0  0  0  0  0  0  0  0  0  0  0  0
    4.9667   -1.8028    2.5053 C   0  0  0  0  0  0  0  0  0  0  0  0
    4.0007   -0.8923    2.9300 C   0  0  0  0  0  0  0  0  0  0  0  0
    3.2811   -0.1392    1.9981 C   0  0  0  0  0  0  0  0  0  0  0  0
    3.5220   -0.2893    0.6326 C   0  0  0  0  0  0  0  0  0  0  0  0
    2.8520    0.4417   -0.3723 N   0  0  0  0  0  0  0  0  0  0  0  0
    1.7927    1.3170   -0.2080 C   0  0  0  0  0  0  0  0  0  0  0  0
    1.1829    1.5340    0.8344 O   0  0  0  0  0  0  0  0  0  0  0  0
    1.3195    1.9927   -1.4584 C   0  0  0  0  0  0  0  0  0  0  0  0
    2.2514    2.3385   -2.4539 C   0  0  0  0  0  0  0  0  0  0  0  0
    1.8249    2.9242   -3.6442 C   0  0  0  0  0  0  0  0  0  0  0  0
    0.4716    3.1746   -3.8438 C   0  0  0  0  0  0  0  0  0  0  0  0
   -0.4599    2.8618   -2.8487 C   0  0  0  0  0  0  0  0  0  0  0  0
   -0.0535    2.2845   -1.6399 C   0  0  0  0  0  0  0  0  0  0  0  0
   -0.9679    1.9972   -0.5989 N   0  0  0  0  0  0  0  0  0  0  0  0
   -2.3411    2.1366   -0.6006 C   0  0  0  0  0  0  0  0  0  0  0  0
   -3.0682    2.5030   -1.5124 O   0  0  0  0  0  0  0  0  0  0  0  0
   -2.9683    1.7420    0.7320 C   0  0  0  0  0  0  0  0  0  0  0  0
   -2.8931    2.5755    1.6343 O   0  0  0  0  0  0  0  0  0  0  0  0
   -3.5668    0.4160    0.9148 C   0  0  0  0  0  0  0  0  0  0  0  0
   -4.1218   -0.0320    2.1110 C   0  0  0  0  0  0  0  0  0  0  0  0
   -4.2726    0.6435    3.4290 C   0  0  0  0  0  0  0  0  0  0  0  0
   -4.5629   -1.3146    1.9199 N   0  0  0  0  0  0  0  0  0  0  0  0
   -4.3127   -1.7258    0.6346 C   0  0  0  0  0  0  0  0  0  0  0  0
   -4.5931   -2.9551    0.0242 C   0  0  0  0  0  0  0  0  0  0  0  0
   -4.2353   -3.1146   -1.3151 C   0  0  0  0  0  0  0  0  0  0  0  0
   -3.6230   -2.0812   -2.0139 C   0  0  0  0  0  0  0  0  0  0  0  0
   -3.3485   -0.8585   -1.3873 C   0  0  0  0  0  0  0  0  0  0  0  0
   -3.6947   -0.6641   -0.0301 C   0  0  0  0  0  0  0  0  0  0  0  0
    4.4994   -1.2043    0.2141 C   0  0  0  0  0  0  0  0  0  0  0  0
    7.2233   -2.3950    0.5347 H   0  0  0  0  0  0  0  0  0  0  0  0
    6.4326   -3.7311    1.4044 H   0  0  0  0  0  0  0  0  0  0  0  0
    5.9895   -3.3985   -0.2694 H   0  0  0  0  0  0  0  0  0  0  0  0
    5.5210   -2.3746    3.2460 H   0  0  0  0  0  0  0  0  0  0  0  0
    3.8063   -0.7614    3.9917 H   0  0  0  0  0  0  0  0  0  0  0  0
    2.5462    0.5643    2.3758 H   0  0  0  0  0  0  0  0  0  0  0  0
    3.1355    0.2310   -1.3199 H   0  0  0  0  0  0  0  0  0  0  0  0
    3.3171    2.1832   -2.3060 H   0  0  0  0  0  0  0  0  0  0  0  0
    2.5462    3.1943   -4.4120 H   0  0  0  0  0  0  0  0  0  0  0  0
    0.1330    3.6347   -4.7699 H   0  0  0  0  0  0  0  0  0  0  0  0
   -1.5003    3.1050   -3.0448 H   0  0  0  0  0  0  0  0  0  0  0  0
   -0.5407    1.7080    0.2874 H   0  0  0  0  0  0  0  0  0  0  0  0
   -4.8659    1.5574    3.3248 H   0  0  0  0  0  0  0  0  0  0  0  0
   -3.2920    0.9065    3.8380 H   0  0  0  0  0  0  0  0  0  0  0  0
   -4.7768   -0.0012    4.1564 H   0  0  0  0  0  0  0  0  0  0  0  0
   -5.0099   -1.8872    2.6229 H   0  0  0  0  0  0  0  0  0  0  0  0
   -5.0749   -3.7611    0.5682 H   0  0  0  0  0  0  0  0  0  0  0  0
   -4.4426   -4.0564   -1.8176 H   0  0  0  0  0  0  0  0  0  0  0  0
   -3.3571   -2.2181   -3.0593 H   0  0  0  0  0  0  0  0  0  0  0  0
   -2.8787   -0.0744   -1.9733 H   0  0  0  0  0  0  0  0  0  0  0  0
    4.7116   -1.3308   -0.8449 H   0  0  0  0  0  0  0  0  0  0  0  0
  1  2  1  0
  2  3  2  0
  3  4  1  0
  4  5  2  0
  5  6  1  0
  6  7  1  0
  7  8  1  0
  8  9  2  0
  8 10  1  0
 10 11  2  0
 11 12  1  0
 12 13  2  0
 13 14  1  0
 14 15  2  0
 15 16  1  0
 16 17  1  0
 17 18  2  0
 17 19  1  0
 19 20  2  0
 19 21  1  0
 21 22  2  0
 22 23  1  0
 22 24  1  0
 24 25  1  0
 25 26  2  0
 26 27  1  0
 27 28  2  0
 28 29  1  0
 29 30  2  0
  6 31  2  0
 31  2  1  0
 15 10  1  0
 30 21  1  0
 30 25  1  0
  1 32  1  0
  1 33  1  0
  1 34  1  0
  3 35  1  0
  4 36  1  0
  5 37  1  0
  7 38  1  0
 11 39  1  0
 12 40  1  0
 13 41  1  0
 14 42  1  0
 16 43  1  0
 23 44  1  0
 23 45  1  0
 23 46  1  0
 24 47  1  0
 26 48  1  0
 27 49  1  0
 28 50  1  0
 29 51  1  0
 31 52  1  0
M  END
>  <smiles>  (8) 
Cc1cccc(NC(=O)c2ccccc2NC(=O)C(=O)c2c(C)[nH]c3ccccc23)c1

$$$$
Molecule_8
     RDKit          3D

 53 54  0  0  0  0  0  0  0  0999 V2000
   -1.9401   -1.9417   -1.3916 C   0  0  0  0  0  0  0  0  0  0  0  0
   -2.2533   -1.3998    0.0091 C   0  0  0  0  0  0  0  0  0  0  0  0
   -3.6739   -1.8195    0.4052 C   0  0  0  0  0  0  0  0  0  0  0  0
   -1.9945    0.1341    0.0950 C   0  0  1  0  0  0  0  0  0  0  0  0
   -3.0078    0.9924   -0.6722 C   0  0  0  0  0  0  0  0  0  0  0  0
   -2.5810    2.4663   -0.7223 C   0  0  0  0  0  0  0  0  0  0  0  0
   -1.7030    2.8949    0.4656 C   0  0  1  0  0  0  0  0  0  0  0  0
   -1.7783    4.4065    0.6793 C   0  0  0  0  0  0  0  0  0  0  0  0
   -2.0969    2.1289    1.7339 C   0  0  0  0  0  0  0  0  0  0  0  0
   -1.8949    0.6126    1.5678 C   0  0  2  0  0  0  0  0  0  0  0  0
   -0.5602    0.2799    2.0127 O   0  0  0  0  0  0  0  0  0  0  0  0
   -0.4201   -0.1627    3.2955 C   0  0  0  0  0  0  0  0  0  0  0  0
   -1.3249   -0.2410    4.1208 O   0  0  0  0  0  0  0  0  0  0  0  0
    1.0342   -0.5115    3.6070 C   0  0  0  0  0  0  0  0  0  0  0  0
    1.9506   -0.4187    2.5149 O   0  0  0  0  0  0  0  0  0  0  0  0
    1.8327   -1.4171    1.6024 C   0  0  0  0  0  0  0  0  0  0  0  0
    1.0790   -2.3753    1.6881 O   0  0  0  0  0  0  0  0  0  0  0  0
    2.7534   -1.1961    0.4548 C   0  0  0  0  0  0  0  0  0  0  0  0
    2.8189   -2.1798   -0.5404 C   0  0  0  0  0  0  0  0  0  0  0  0
    3.6675   -2.0228   -1.6448 C   0  0  0  0  0  0  0  0  0  0  0  0
    4.4568   -0.8766   -1.7672 C   0  0  0  0  0  0  0  0  0  0  0  0
    5.3268   -0.5915   -2.7814 O   0  0  0  0  0  0  0  0  0  0  0  0
    5.4128   -1.5123   -3.8578 C   0  0  0  0  0  0  0  0  0  0  0  0
    6.3022   -1.0415   -4.7607 F   0  0  0  0  0  0  0  0  0  0  0  0
    5.8469   -2.7197   -3.4320 F   0  0  0  0  0  0  0  0  0  0  0  0
    4.2190   -1.6492   -4.4750 F   0  0  0  0  0  0  0  0  0  0  0  0
    4.3893    0.1051   -0.7730 C   0  0  0  0  0  0  0  0  0  0  0  0
    3.5450   -0.0473    0.3324 C   0  0  0  0  0  0  0  0  0  0  0  0
   -0.9282   -1.6596   -1.7107 H   0  0  0  0  0  0  0  0  0  0  0  0
   -1.9946   -3.0380   -1.3981 H   0  0  0  0  0  0  0  0  0  0  0  0
   -2.6537   -1.5698   -2.1374 H   0  0  0  0  0  0  0  0  0  0  0  0
   -1.5593   -1.8958    0.7004 H   0  0  0  0  0  0  0  0  0  0  0  0
   -3.9332   -1.4897    1.4153 H   0  0  0  0  0  0  0  0  0  0  0  0
   -3.7659   -2.9122    0.3882 H   0  0  0  0  0  0  0  0  0  0  0  0
   -4.4246   -1.4172   -0.2853 H   0  0  0  0  0  0  0  0  0  0  0  0
   -1.0086    0.2957   -0.3699 H   0  0  0  0  0  0  0  0  0  0  0  0
   -3.1414    0.6336   -1.6983 H   0  0  0  0  0  0  0  0  0  0  0  0
   -3.9907    0.9274   -0.1871 H   0  0  0  0  0  0  0  0  0  0  0  0
   -2.0210    2.6511   -1.6490 H   0  0  0  0  0  0  0  0  0  0  0  0
   -3.4851    3.0865   -0.7852 H   0  0  0  0  0  0  0  0  0  0  0  0
   -0.6574    2.6506    0.2286 H   0  0  0  0  0  0  0  0  0  0  0  0
   -1.4712    4.9420   -0.2250 H   0  0  0  0  0  0  0  0  0  0  0  0
   -2.7965    4.7253    0.9378 H   0  0  0  0  0  0  0  0  0  0  0  0
   -1.1148    4.7172    1.4933 H   0  0  0  0  0  0  0  0  0  0  0  0
   -3.1551    2.3268    1.9528 H   0  0  0  0  0  0  0  0  0  0  0  0
   -1.5183    2.4973    2.5900 H   0  0  0  0  0  0  0  0  0  0  0  0
   -2.6399    0.0998    2.1862 H   0  0  0  0  0  0  0  0  0  0  0  0
    1.3778    0.2027    4.3631 H   0  0  0  0  0  0  0  0  0  0  0  0
    1.0752   -1.5147    4.0473 H   0  0  0  0  0  0  0  0  0  0  0  0
    2.2063   -3.0795   -0.4630 H   0  0  0  0  0  0  0  0  0  0  0  0
    3.6785   -2.8194   -2.3851 H   0  0  0  0  0  0  0  0  0  0  0  0
    5.0010    1.0036   -0.8559 H   0  0  0  0  0  0  0  0  0  0  0  0
    3.5146    0.7397    1.0815 H   0  0  0  0  0  0  0  0  0  0  0  0
  1  2  1  0
  2  3  1  0
  2  4  1  0
  4  5  1  0
  5  6  1  0
  6  7  1  0
  7  8  1  0
  7  9  1  0
  9 10  1  0
 10 11  1  0
 11 12  1  0
 12 13  2  0
 12 14  1  0
 14 15  1  0
 15 16  1  0
 16 17  2  0
 16 18  1  0
 18 19  2  0
 19 20  1  0
 20 21  2  0
 21 22  1  0
 22 23  1  0
 23 24  1  0
 23 25  1  0
 23 26  1  0
 21 27  1  0
 27 28  2  0
 10  4  1  0
 28 18  1  0
  1 29  1  0
  1 30  1  0
  1 31  1  0
  2 32  1  0
  3 33  1  0
  3 34  1  0
  3 35  1  0
  4 36  1  6
  5 37  1  0
  5 38  1  0
  6 39  1  0
  6 40  1  0
  7 41  1  6
  8 42  1  0
  8 43  1  0
  8 44  1  0
  9 45  1  0
  9 46  1  0
 10 47  1  1
 14 48  1  0
 14 49  1  0
 19 50  1  0
 20 51  1  0
 27 52  1  0
 28 53  1  0
M  END
>  <smiles>  (9) 
CC(C)[C@H]1CC[C@@H](C)C[C@@H]1OC(=O)COC(=O)c1ccc(OC(F)(F)F)cc1

$$$$
Molecule_9
     RDKit          3D

 47 50  0  0  0  0  0  0  0  0999 V2000
   -1.4582   -2.5573   -0.9491 C   0  0  0  0  0  0  0  0  0  0  0  0
   -0.9352   -1.3668   -1.7558 C   0  0  0  0  0  0  0  0  0  0  0  0
   -1.9687   -0.7778   -2.7165 C   0  0  0  0  0  0  0  0  0  0  0  0
   -0.2596   -0.3560   -0.9505 N   0  0  0  0  0  0  0  0  0  0  0  0
    1.0531    0.0473   -1.0874 C   0  0  0  0  0  0  0  0  0  0  0  0
    2.1599   -0.5590   -2.2712 S   0  0  0  0  0  0  0  0  0  0  0  0
    3.4326    0.7559   -2.3619 C   0  0  1  0  0  0  0  0  0  0  0  0
    2.8564    2.0480   -2.9345 C   0  0  0  0  0  0  0  0  0  0  0  0
    4.2005    0.9805   -1.0475 C   0  0  0  0  0  0  0  0  0  0  0  0
    4.6282    2.0959   -0.7580 O   0  0  0  0  0  0  0  0  0  0  0  0
    4.4504   -0.1850   -0.3545 N   0  0  0  0  0  0  0  0  0  0  0  0
    5.1156   -0.3276    0.8336 C   0  0  0  0  0  0  0  0  0  0  0  0
    5.1984   -1.5012    1.4190 N   0  0  0  0  0  0  0  0  0  0  0  0
    5.9073   -1.3773    2.5985 C   0  0  0  0  0  0  0  0  0  0  0  0
    6.3643   -0.1096    2.8848 C   0  0  0  0  0  0  0  0  0  0  0  0
    5.8915    0.9604    1.6339 S   0  0  0  0  0  0  0  0  0  0  0  0
    1.3521    0.9348   -0.1745 N   0  0  0  0  0  0  0  0  0  0  0  0
    0.2307    1.1548    0.5703 N   0  0  0  0  0  0  0  0  0  0  0  0
   -0.7450    0.3985    0.1008 C   0  0  0  0  0  0  0  0  0  0  0  0
   -2.0601    0.4373    0.6686 C   0  0  0  0  0  0  0  0  0  0  0  0
   -2.4451    1.0944    1.8303 C   0  0  0  0  0  0  0  0  0  0  0  0
   -3.8344    0.8797    2.0106 C   0  0  0  0  0  0  0  0  0  0  0  0
   -4.8001    1.2580    2.9589 C   0  0  0  0  0  0  0  0  0  0  0  0
   -6.1231    0.8292    2.7767 C   0  0  0  0  0  0  0  0  0  0  0  0
   -6.4809    0.0427    1.6777 C   0  0  0  0  0  0  0  0  0  0  0  0
   -5.5326   -0.3415    0.7239 C   0  0  0  0  0  0  0  0  0  0  0  0
   -4.2288    0.1004    0.9344 C   0  0  0  0  0  0  0  0  0  0  0  0
   -3.1664   -0.1616    0.1285 O   0  0  0  0  0  0  0  0  0  0  0  0
   -2.3270   -2.3166   -0.3355 H   0  0  0  0  0  0  0  0  0  0  0  0
   -1.7581   -3.3669   -1.6242 H   0  0  0  0  0  0  0  0  0  0  0  0
   -0.6801   -2.9495   -0.2842 H   0  0  0  0  0  0  0  0  0  0  0  0
   -0.1705   -1.8063   -2.4045 H   0  0  0  0  0  0  0  0  0  0  0  0
   -2.8328   -0.3504   -2.2067 H   0  0  0  0  0  0  0  0  0  0  0  0
   -1.5222    0.0173   -3.3244 H   0  0  0  0  0  0  0  0  0  0  0  0
   -2.3399   -1.5504   -3.3989 H   0  0  0  0  0  0  0  0  0  0  0  0
    4.1812    0.3870   -3.0748 H   0  0  0  0  0  0  0  0  0  0  0  0
    2.1557    2.5296   -2.2443 H   0  0  0  0  0  0  0  0  0  0  0  0
    3.6572    2.7709   -3.1266 H   0  0  0  0  0  0  0  0  0  0  0  0
    2.3432    1.8728   -3.8862 H   0  0  0  0  0  0  0  0  0  0  0  0
    4.0026   -1.0375   -0.6621 H   0  0  0  0  0  0  0  0  0  0  0  0
    6.0623   -2.2513    3.2190 H   0  0  0  0  0  0  0  0  0  0  0  0
    6.9310    0.2292    3.7393 H   0  0  0  0  0  0  0  0  0  0  0  0
   -1.7839    1.6648    2.4694 H   0  0  0  0  0  0  0  0  0  0  0  0
   -4.5320    1.8695    3.8152 H   0  0  0  0  0  0  0  0  0  0  0  0
   -6.8813    1.1144    3.5032 H   0  0  0  0  0  0  0  0  0  0  0  0
   -7.5151   -0.2755    1.5609 H   0  0  0  0  0  0  0  0  0  0  0  0
   -5.7934   -0.9482   -0.1342 H   0  0  0  0  0  0  0  0  0  0  0  0
  1  2  1  0
  2  3  1  0
  2  4  1  0
  4  5  1  0
  5  6  1  0
  6  7  1  0
  7  8  1  0
  7  9  1  0
  9 10  2  0
  9 11  1  0
 11 12  1  0
 12 13  2  0
 13 14  1  0
 14 15  2  0
 15 16  1  0
  5 17  2  0
 17 18  1  0
 18 19  2  0
 19 20  1  0
 20 21  2  0
 21 22  1  0
 22 23  2  0
 23 24  1  0
 24 25  2  0
 25 26  1  0
 26 27  2  0
 27 28  1  0
 19  4  1  0
 28 20  1  0
 16 12  1  0
 27 22  1  0
  1 29  1  0
  1 30  1  0
  1 31  1  0
  2 32  1  0
  3 33  1  0
  3 34  1  0
  3 35  1  0
  7 36  1  6
  8 37  1  0
  8 38  1  0
  8 39  1  0
 11 40  1  0
 14 41  1  0
 15 42  1  0
 21 43  1  0
 23 44  1  0
 24 45  1  0
 25 46  1  0
 26 47  1  0
M  END
>  <smiles>  (10) 
CC(C)n1c(S[C@@H](C)C(=O)Nc2nccs2)nnc1-c1cc2ccccc2o1

$$$$
