
     RDKit          3D

 61 68  0  0  0  0  0  0  0  0999 V2000
    5.9139   -1.0034    0.0190 O   0  0  0  0  0  0  0  0  0  0  0  0
    5.2021   -0.0247    0.1199 C   0  0  0  0  0  0  0  0  0  0  0  0
    5.6452    1.2585    0.3537 N   0  0  0  0  0  0  0  0  0  0  0  0
    4.5870    2.2282    0.4408 C   0  0  0  0  0  0  0  0  0  0  0  0
    3.3489    1.4067    0.2201 C   0  0  0  0  0  0  0  0  0  0  0  0
    2.0007    1.8276    0.2128 C   0  0  0  0  0  0  0  0  0  0  0  0
    1.0652    0.8492   -0.0366 C   0  0  0  0  0  0  0  0  0  0  0  0
   -0.2103    1.3919   -0.1028 N   0  0  0  0  0  0  0  0  0  0  0  0
   -0.1133    2.7214    0.2929 C   0  0  0  0  0  0  0  0  0  0  0  0
   -1.1016    3.6962    0.5142 C   0  0  0  0  0  0  0  0  0  0  0  0
   -0.7013    4.9893    0.8621 C   0  0  0  0  0  0  0  0  0  0  0  0
    0.6438    5.3121    0.9895 C   0  0  0  0  0  0  0  0  0  0  0  0
    1.6278    4.3414    0.7830 C   0  0  0  0  0  0  0  0  0  0  0  0
    1.2571    3.0234    0.4375 C   0  0  0  0  0  0  0  0  0  0  0  0
   -1.4223    0.7023   -0.6418 C   0  0  0  0  0  0  0  0  0  0  0  0
   -0.9687   -0.5457   -1.1886 O   0  0  0  0  0  0  0  0  0  0  0  0
   -0.6628   -1.4422   -0.1139 C   0  0  0  0  0  0  0  0  0  0  0  0
    0.7148   -1.7360   -0.2889 N   0  0  0  0  0  0  0  0  0  0  0  0
    1.5360   -0.6467   -0.1929 C   0  0  0  0  0  0  0  0  0  0  0  0
    2.8497   -1.0367   -0.1608 C   0  0  0  0  0  0  0  0  0  0  0  0
    3.7387    0.0310    0.0259 C   0  0  0  0  0  0  0  0  0  0  0  0
    2.8149   -2.4645   -0.3174 C   0  0  0  0  0  0  0  0  0  0  0  0
    3.8069   -3.4656   -0.3815 C   0  0  0  0  0  0  0  0  0  0  0  0
    3.4383   -4.8091   -0.5140 C   0  0  0  0  0  0  0  0  0  0  0  0
    2.0976   -5.1757   -0.5779 C   0  0  0  0  0  0  0  0  0  0  0  0
    1.0839   -4.2163   -0.5114 C   0  0  0  0  0  0  0  0  0  0  0  0
    1.4587   -2.8717   -0.3846 C   0  0  0  0  0  0  0  0  0  0  0  0
   -1.9098   -2.2617    0.0218 C   0  0  0  0  0  0  0  0  0  0  0  0
   -3.0712   -1.2018    0.2320 C   0  0  0  0  0  0  0  0  0  0  0  0
   -4.0810   -1.2932   -0.8406 N   0  0  0  0  0  0  0  0  0  0  0  0
   -4.8998   -2.4941   -0.7641 C   0  0  0  0  0  0  0  0  0  0  0  0
   -2.5453    0.3306    0.4173 C   0  0  0  0  0  0  0  0  0  0  0  0
   -3.6037    1.3052    0.4009 O   0  0  0  0  0  0  0  0  0  0  0  0
   -4.5382    1.1658    1.4613 C   0  0  0  0  0  0  0  0  0  0  0  0
   -1.9680    1.4602   -1.8635 C   0  0  0  0  0  0  0  0  0  0  0  0
    6.6316    1.4539    0.4556 H   0  0  0  0  0  0  0  0  0  0  0  0
    4.6037    2.6843    1.4339 H   0  0  0  0  0  0  0  0  0  0  0  0
    4.7249    2.9786   -0.3418 H   0  0  0  0  0  0  0  0  0  0  0  0
   -2.1596    3.4708    0.4206 H   0  0  0  0  0  0  0  0  0  0  0  0
   -1.4566    5.7538    1.0310 H   0  0  0  0  0  0  0  0  0  0  0  0
    0.9343    6.3248    1.2581 H   0  0  0  0  0  0  0  0  0  0  0  0
    2.6742    4.6059    0.9004 H   0  0  0  0  0  0  0  0  0  0  0  0
   -0.6172   -0.9560    0.8754 H   0  0  0  0  0  0  0  0  0  0  0  0
    4.8597   -3.2003   -0.3287 H   0  0  0  0  0  0  0  0  0  0  0  0
    4.2128   -5.5705   -0.5664 H   0  0  0  0  0  0  0  0  0  0  0  0
    1.8351   -6.2260   -0.6828 H   0  0  0  0  0  0  0  0  0  0  0  0
    0.0429   -4.5156   -0.5681 H   0  0  0  0  0  0  0  0  0  0  0  0
   -1.8558   -2.9468    0.8747 H   0  0  0  0  0  0  0  0  0  0  0  0
   -2.0705   -2.8676   -0.8770 H   0  0  0  0  0  0  0  0  0  0  0  0
   -3.5743   -1.4528    1.1754 H   0  0  0  0  0  0  0  0  0  0  0  0
   -3.6298   -1.2367   -1.7551 H   0  0  0  0  0  0  0  0  0  0  0  0
   -5.6504   -2.4703   -1.5603 H   0  0  0  0  0  0  0  0  0  0  0  0
   -5.4376   -2.5450    0.1881 H   0  0  0  0  0  0  0  0  0  0  0  0
   -4.3115   -3.4075   -0.8902 H   0  0  0  0  0  0  0  0  0  0  0  0
   -2.0955    0.3918    1.4187 H   0  0  0  0  0  0  0  0  0  0  0  0
   -5.1439    0.2648    1.3381 H   0  0  0  0  0  0  0  0  0  0  0  0
   -4.0288    1.1516    2.4295 H   0  0  0  0  0  0  0  0  0  0  0  0
   -5.2090    2.0290    1.4373 H   0  0  0  0  0  0  0  0  0  0  0  0
   -1.1742    1.6281   -2.6020 H   0  0  0  0  0  0  0  0  0  0  0  0
   -2.7391    0.8735   -2.3750 H   0  0  0  0  0  0  0  0  0  0  0  0
   -2.3992    2.4320   -1.6127 H   0  0  0  0  0  0  0  0  0  0  0  0
  1  2  2  0
  2  3  1  0
  3  4  1  0
  4  5  1  0
  5  6  2  0
  6  7  1  0
  7  8  1  0
  8  9  1  0
  9 10  2  0
 10 11  1  0
 11 12  2  0
 12 13  1  0
 13 14  2  0
  8 15  1  0
 15 16  1  0
 16 17  1  0
 17 18  1  0
 18 19  1  0
 19 20  1  0
 20 21  2  0
 20 22  1  0
 22 23  2  0
 23 24  1  0
 24 25  2  0
 25 26  1  0
 26 27  2  0
 17 28  1  0
 28 29  1  0
 29 30  1  0
 30 31  1  0
 29 32  1  0
 32 33  1  0
 33 34  1  0
 15 35  1  0
 14  9  1  0
 14  6  1  0
 19  7  2  0
 21  5  1  0
 21  2  1  0
 27 18  1  0
 27 22  1  0
 32 15  1  0
  3 36  1  0
  4 37  1  0
  4 38  1  0
 10 39  1  0
 11 40  1  0
 12 41  1  0
 13 42  1  0
 17 43  1  0
 23 44  1  0
 24 45  1  0
 25 46  1  0
 26 47  1  0
 28 48  1  0
 28 49  1  0
 29 50  1  0
 30 51  1  0
 31 52  1  0
 31 53  1  0
 31 54  1  0
 32 55  1  0
 34 56  1  0
 34 57  1  0
 34 58  1  0
 35 59  1  0
 35 60  1  0
 35 61  1  0
M  END
$$$$
