


 44 48  0  0  0  0  0  0  0  0999 V2000
   -8.2671   19.5495  -10.1859 C   0  0  0  0  0  0  0  0  0  0  0  0
   -7.3651   18.5178  -10.1417 N   0  0  0  0  0  0  0  0  0  0  0  0
   -6.6840   18.0952  -11.2523 C   0  0  0  0  0  0  0  0  0  0  0  0
   -7.0477   18.8195  -12.3916 C   0  0  0  0  0  0  0  0  0  0  0  0
   -6.6617   18.6775  -13.7000 C   0  0  0  0  0  0  0  0  0  0  0  0
   -7.3523   19.6387  -14.3824 N   0  0  0  0  0  0  0  0  0  0  0  0
   -8.1646   20.3840  -13.6117 N   0  0  0  0  0  0  0  0  0  0  0  0
   -7.9964   19.8731  -12.3907 C   0  0  0  0  0  0  0  0  0  0  0  0
   -8.6304   20.2704  -11.2737 N   0  0  0  0  0  0  0  0  0  0  0  0
   -7.3197   19.8408  -15.3741 H   0  0  0  0  0  0  0  0  0  0  0  0
   -8.9141   19.9666   -9.0248 N   0  0  0  0  0  0  0  0  0  0  0  0
   -9.1513   20.9486   -9.1120 H   0  0  0  0  0  0  0  0  0  0  0  0
   -9.2159   20.4279   -6.6822 C   0  0  0  0  0  0  0  0  0  0  0  0
   -9.2525   20.0429   -5.3409 C   0  0  0  0  0  0  0  0  0  0  0  0
   -9.1409   18.6910   -4.9645 C   0  0  0  0  0  0  0  0  0  0  0  0
   -8.9900   17.7290   -5.9887 C   0  0  0  0  0  0  0  0  0  0  0  0
   -8.9663   16.2437   -5.7452 C   0  0  0  0  0  0  0  0  0  0  0  0
   -8.9169   18.1514   -7.3400 C   0  0  0  0  0  0  0  0  0  0  0  0
   -8.9918   19.4963   -7.7069 C   0  0  0  0  0  0  0  0  0  0  0  0
   -9.1827   18.3909   -3.4706 C   0  0  0  0  0  0  0  0  0  0  0  0
   -8.2248   19.2418   -2.6281 C   0  0  0  0  0  0  0  0  0  0  0  0
   -8.2658   18.7686   -1.1696 C   0  0  0  0  0  0  0  0  0  0  0  0
   -9.6204   18.6690   -0.5897 N   0  0  0  0  0  0  0  0  0  0  0  0
   -9.8528   17.3577    0.0093 C   0  0  0  0  0  0  0  0  0  0  0  0
  -10.6850   19.0495   -1.5202 C   0  0  0  0  0  0  0  0  0  0  0  0
  -10.6065   18.3612   -2.8859 C   0  0  0  0  0  0  0  0  0  0  0  0
   -9.3140   21.7551   -7.0377 O   0  0  0  0  0  0  0  0  0  0  0  0
   -8.4802   23.8448   -6.2718 C   0  0  0  0  0  0  0  0  0  0  0  0
   -9.3548   22.6468   -5.9099 C   0  0  0  0  0  0  0  0  0  0  0  0
  -10.7881   23.1088   -5.6477 C   0  0  0  0  0  0  0  0  0  0  0  0
   -5.7924   17.0093  -11.0892 N   0  0  0  0  0  0  0  0  0  0  0  0
   -4.8613   17.4474  -11.1403 H   0  0  0  0  0  0  0  0  0  0  0  0
   -5.8741   15.9796  -10.1328 C   0  0  0  0  0  0  0  0  0  0  0  0
   -5.9811   16.3449   -8.7783 C   0  0  0  0  0  0  0  0  0  0  0  0
   -5.9309   15.3925   -7.7604 C   0  0  0  0  0  0  0  0  0  0  0  0
   -5.7410   14.0506   -8.0749 C   0  0  0  0  0  0  0  0  0  0  0  0
   -5.6405   13.6607   -9.4095 C   0  0  0  0  0  0  0  0  0  0  0  0
   -5.7509   14.6121  -10.4355 C   0  0  0  0  0  0  0  0  0  0  0  0
   -5.7123   14.0215  -12.1183 S   0  0  0  0  0  0  0  0  0  0  0  0
   -5.5475   15.1793  -12.9821 O   0  0  0  0  0  0  0  0  0  0  0  0
   -4.7370   12.9474  -12.1493 O   0  0  0  0  0  0  0  0  0  0  0  0
   -7.3447   13.3640  -12.4878 C   0  0  0  0  0  0  0  0  0  0  0  0
   -8.4667   14.3569  -12.1905 C   0  0  0  0  0  0  0  0  0  0  0  0
   -7.6070   12.0116  -11.8339 C   0  0  0  0  0  0  0  0  0  0  0  0
 28 29  1  0  0  0
 29 30  1  0  0  0
 29 27  1  0  0  0
 27 13  1  0  0  0
 13 14  2  0  0  0
 14 15  1  0  0  0
 15 20  1  0  0  0
 20 21  1  0  0  0
 21 22  1  0  0  0
 22 23  1  0  0  0
 23 24  1  0  0  0
 23 25  1  0  0  0
 25 26  1  0  0  0
 15 16  2  0  0  0
 16 17  1  0  0  0
 16 18  1  0  0  0
 18 19  2  0  0  0
 19 11  1  0  0  0
 11  1  1  0  0  0
  1  2  1  0  0  0
  2  3  2  0  0  0
  3 31  1  0  0  0
 31 33  1  0  0  0
 33 34  2  0  0  0
 34 35  1  0  0  0
 35 36  2  0  0  0
 36 37  1  0  0  0
 37 38  2  0  0  0
 38 39  1  0  0  0
 39 40  2  0  0  0
 39 41  2  0  0  0
 39 42  1  0  0  0
 42 43  1  0  0  0
 42 44  1  0  0  0
  3  4  1  0  0  0
  4  5  2  0  0  0
  5  6  1  0  0  0
  6  7  1  0  0  0
  7  8  2  0  0  0
  8  9  1  0  0  0
 19 13  1  0  0  0
 26 20  1  0  0  0
  9  1  2  0  0  0
 38 33  1  0  0  0
  8  4  1  0  0  0
 11 12  1  0  0  0
 31 32  1  0  0  0
  6 10  1  0  0  0
M  END
> <minimizedAffinity>
-10.33290

$$$$



 44 48  0  0  0  0  0  0  0  0999 V2000
   -8.7197   19.3836   -9.5872 C   0  0  0  0  0  0  0  0  0  0  0  0
   -8.0419   18.1917   -9.5946 N   0  0  0  0  0  0  0  0  0  0  0  0
   -7.3150   17.7717  -10.6768 C   0  0  0  0  0  0  0  0  0  0  0  0
   -7.3852   18.6829  -11.7350 C   0  0  0  0  0  0  0  0  0  0  0  0
   -6.8670   18.6189  -13.0032 C   0  0  0  0  0  0  0  0  0  0  0  0
   -7.2699   19.7736  -13.6123 N   0  0  0  0  0  0  0  0  0  0  0  0
   -8.0197   20.5737  -12.8332 N   0  0  0  0  0  0  0  0  0  0  0  0
   -8.1102   19.9003  -11.6849 C   0  0  0  0  0  0  0  0  0  0  0  0
   -8.7968   20.2853  -10.5951 N   0  0  0  0  0  0  0  0  0  0  0  0
   -7.0718   20.0791  -14.5571 H   0  0  0  0  0  0  0  0  0  0  0  0
   -9.4210   19.7853   -8.4525 N   0  0  0  0  0  0  0  0  0  0  0  0
   -9.9025   20.6553   -8.6512 H   0  0  0  0  0  0  0  0  0  0  0  0
   -9.3147   20.5751   -6.1817 C   0  0  0  0  0  0  0  0  0  0  0  0
   -9.1834   20.3720   -4.8068 C   0  0  0  0  0  0  0  0  0  0  0  0
   -9.1480   19.0758   -4.2588 C   0  0  0  0  0  0  0  0  0  0  0  0
   -9.2500   17.9795   -5.1448 C   0  0  0  0  0  0  0  0  0  0  0  0
   -9.3346   16.5453   -4.6958 C   0  0  0  0  0  0  0  0  0  0  0  0
   -9.3434   18.2139   -6.5400 C   0  0  0  0  0  0  0  0  0  0  0  0
   -9.3419   19.5001   -7.0827 C   0  0  0  0  0  0  0  0  0  0  0  0
   -8.9902   18.9765   -2.7460 C   0  0  0  0  0  0  0  0  0  0  0  0
   -7.6750   19.5535   -2.2086 C   0  0  0  0  0  0  0  0  0  0  0  0
   -7.5759   19.2876   -0.7013 C   0  0  0  0  0  0  0  0  0  0  0  0
   -8.7578   19.7059    0.0794 N   0  0  0  0  0  0  0  0  0  0  0  0
   -9.2584   18.6207    0.9184 C   0  0  0  0  0  0  0  0  0  0  0  0
   -9.8144   20.3085   -0.7357 C   0  0  0  0  0  0  0  0  0  0  0  0
  -10.2144   19.4836   -1.9624 C   0  0  0  0  0  0  0  0  0  0  0  0
   -9.3360   21.8481   -6.7075 O   0  0  0  0  0  0  0  0  0  0  0  0
   -8.3522   23.9449   -6.1746 C   0  0  0  0  0  0  0  0  0  0  0  0
   -9.3403   22.8799   -5.7054 C   0  0  0  0  0  0  0  0  0  0  0  0
  -10.7367   23.4875   -5.5725 C   0  0  0  0  0  0  0  0  0  0  0  0
   -6.6728   16.5154  -10.5758 N   0  0  0  0  0  0  0  0  0  0  0  0
   -6.3649   16.4763   -9.5934 H   0  0  0  0  0  0  0  0  0  0  0  0
   -7.1403   15.2810  -11.0648 C   0  0  0  0  0  0  0  0  0  0  0  0
   -7.7872   15.2691  -12.3142 C   0  0  0  0  0  0  0  0  0  0  0  0
   -8.3978   14.1161  -12.8079 C   0  0  0  0  0  0  0  0  0  0  0  0
   -8.4013   12.9524  -12.0455 C   0  0  0  0  0  0  0  0  0  0  0  0
   -7.7601   12.9347  -10.8077 C   0  0  0  0  0  0  0  0  0  0  0  0
   -7.0946   14.0780  -10.3385 C   0  0  0  0  0  0  0  0  0  0  0  0
   -6.2137   13.9458   -8.7930 S   0  0  0  0  0  0  0  0  0  0  0  0
   -6.2734   12.5544   -8.3758 O   0  0  0  0  0  0  0  0  0  0  0  0
   -4.9288   14.5870   -9.0019 O   0  0  0  0  0  0  0  0  0  0  0  0
   -7.1534   14.8650   -7.5660 C   0  0  0  0  0  0  0  0  0  0  0  0
   -8.6166   15.0577   -7.9597 C   0  0  0  0  0  0  0  0  0  0  0  0
   -6.4997   16.1875   -7.1792 C   0  0  0  0  0  0  0  0  0  0  0  0
 28 29  1  0  0  0
 29 30  1  0  0  0
 29 27  1  0  0  0
 27 13  1  0  0  0
 13 14  2  0  0  0
 14 15  1  0  0  0
 15 20  1  0  0  0
 20 21  1  0  0  0
 21 22  1  0  0  0
 22 23  1  0  0  0
 23 24  1  0  0  0
 23 25  1  0  0  0
 25 26  1  0  0  0
 15 16  2  0  0  0
 16 17  1  0  0  0
 16 18  1  0  0  0
 18 19  2  0  0  0
 19 11  1  0  0  0
 11  1  1  0  0  0
  1  2  1  0  0  0
  2  3  2  0  0  0
  3 31  1  0  0  0
 31 33  1  0  0  0
 33 34  2  0  0  0
 34 35  1  0  0  0
 35 36  2  0  0  0
 36 37  1  0  0  0
 37 38  2  0  0  0
 38 39  1  0  0  0
 39 40  2  0  0  0
 39 41  2  0  0  0
 39 42  1  0  0  0
 42 43  1  0  0  0
 42 44  1  0  0  0
  3  4  1  0  0  0
  4  5  2  0  0  0
  5  6  1  0  0  0
  6  7  1  0  0  0
  7  8  2  0  0  0
  8  9  1  0  0  0
 19 13  1  0  0  0
 26 20  1  0  0  0
  9  1  2  0  0  0
 38 33  1  0  0  0
  8  4  1  0  0  0
 11 12  1  0  0  0
 31 32  1  0  0  0
  6 10  1  0  0  0
M  END
> <minimizedAffinity>
-9.85907

$$$$



 44 48  0  0  0  0  0  0  0  0999 V2000
   -8.7643   19.2513   -9.4937 C   0  0  0  0  0  0  0  0  0  0  0  0
   -7.8102   18.2669   -9.4669 N   0  0  0  0  0  0  0  0  0  0  0  0
   -6.9898   18.0158  -10.5346 C   0  0  0  0  0  0  0  0  0  0  0  0
   -7.2739   18.8546  -11.6165 C   0  0  0  0  0  0  0  0  0  0  0  0
   -6.7426   18.8914  -12.8804 C   0  0  0  0  0  0  0  0  0  0  0  0
   -7.4145   19.8937  -13.5213 N   0  0  0  0  0  0  0  0  0  0  0  0
   -8.3487   20.4996  -12.7666 N   0  0  0  0  0  0  0  0  0  0  0  0
   -8.2805   19.8530  -11.6016 C   0  0  0  0  0  0  0  0  0  0  0  0
   -9.0532   20.0805  -10.5253 N   0  0  0  0  0  0  0  0  0  0  0  0
   -7.2887   20.2160  -14.4729 H   0  0  0  0  0  0  0  0  0  0  0  0
   -9.5559   19.4925   -8.3730 N   0  0  0  0  0  0  0  0  0  0  0  0
  -10.4982   19.1660   -8.5564 H   0  0  0  0  0  0  0  0  0  0  0  0
   -9.7513   19.8125   -5.9959 C   0  0  0  0  0  0  0  0  0  0  0  0
   -9.7428   20.6112   -4.8509 C   0  0  0  0  0  0  0  0  0  0  0  0
   -9.3824   21.9707   -4.9099 C   0  0  0  0  0  0  0  0  0  0  0  0
   -9.0271   22.5074   -6.1681 C   0  0  0  0  0  0  0  0  0  0  0  0
   -8.5187   23.9102   -6.3665 C   0  0  0  0  0  0  0  0  0  0  0  0
   -9.0819   21.6837   -7.3207 C   0  0  0  0  0  0  0  0  0  0  0  0
   -9.4746   20.3452   -7.2639 C   0  0  0  0  0  0  0  0  0  0  0  0
   -9.4206   22.7463   -3.5983 C   0  0  0  0  0  0  0  0  0  0  0  0
  -10.7395   23.4841   -3.3386 C   0  0  0  0  0  0  0  0  0  0  0  0
  -10.6157   24.3220   -2.0599 C   0  0  0  0  0  0  0  0  0  0  0  0
  -10.1200   23.5824   -0.8816 N   0  0  0  0  0  0  0  0  0  0  0  0
   -8.9861   24.2608   -0.2601 C   0  0  0  0  0  0  0  0  0  0  0  0
   -9.8407   22.1706   -1.1515 C   0  0  0  0  0  0  0  0  0  0  0  0
   -8.9612   21.9241   -2.3806 C   0  0  0  0  0  0  0  0  0  0  0  0
  -10.1175   18.4863   -5.9277 O   0  0  0  0  0  0  0  0  0  0  0  0
   -9.3442   17.1817   -4.0979 C   0  0  0  0  0  0  0  0  0  0  0  0
   -9.0429   17.6170   -5.5299 C   0  0  0  0  0  0  0  0  0  0  0  0
   -8.9815   16.3934   -6.4439 C   0  0  0  0  0  0  0  0  0  0  0  0
   -6.0554   16.9628  -10.3979 N   0  0  0  0  0  0  0  0  0  0  0  0
   -5.1472   17.4175  -10.5712 H   0  0  0  0  0  0  0  0  0  0  0  0
   -6.0101   15.9948   -9.3769 C   0  0  0  0  0  0  0  0  0  0  0  0
   -5.7580   16.4327   -8.0638 C   0  0  0  0  0  0  0  0  0  0  0  0
   -5.5632   15.5294   -7.0189 C   0  0  0  0  0  0  0  0  0  0  0  0
   -5.5859   14.1614   -7.2715 C   0  0  0  0  0  0  0  0  0  0  0  0
   -5.8421   13.7006   -8.5620 C   0  0  0  0  0  0  0  0  0  0  0  0
   -6.0972   14.6094   -9.6009 C   0  0  0  0  0  0  0  0  0  0  0  0
   -6.5150   13.9401  -11.2007 S   0  0  0  0  0  0  0  0  0  0  0  0
   -5.7537   14.6798  -12.1942 O   0  0  0  0  0  0  0  0  0  0  0  0
   -6.3617   12.5013  -11.0915 O   0  0  0  0  0  0  0  0  0  0  0  0
   -8.2407   14.3404  -11.5094 C   0  0  0  0  0  0  0  0  0  0  0  0
   -9.1200   14.1750  -10.2715 C   0  0  0  0  0  0  0  0  0  0  0  0
   -8.8209   13.6006  -12.7102 C   0  0  0  0  0  0  0  0  0  0  0  0
 28 29  1  0  0  0
 29 30  1  0  0  0
 29 27  1  0  0  0
 27 13  1  0  0  0
 13 14  2  0  0  0
 14 15  1  0  0  0
 15 20  1  0  0  0
 20 21  1  0  0  0
 21 22  1  0  0  0
 22 23  1  0  0  0
 23 24  1  0  0  0
 23 25  1  0  0  0
 25 26  1  0  0  0
 15 16  2  0  0  0
 16 17  1  0  0  0
 16 18  1  0  0  0
 18 19  2  0  0  0
 19 11  1  0  0  0
 11  1  1  0  0  0
  1  2  1  0  0  0
  2  3  2  0  0  0
  3 31  1  0  0  0
 31 33  1  0  0  0
 33 34  2  0  0  0
 34 35  1  0  0  0
 35 36  2  0  0  0
 36 37  1  0  0  0
 37 38  2  0  0  0
 38 39  1  0  0  0
 39 40  2  0  0  0
 39 41  2  0  0  0
 39 42  1  0  0  0
 42 43  1  0  0  0
 42 44  1  0  0  0
  3  4  1  0  0  0
  4  5  2  0  0  0
  5  6  1  0  0  0
  6  7  1  0  0  0
  7  8  2  0  0  0
  8  9  1  0  0  0
 19 13  1  0  0  0
 26 20  1  0  0  0
  9  1  2  0  0  0
 38 33  1  0  0  0
  8  4  1  0  0  0
 11 12  1  0  0  0
 31 32  1  0  0  0
  6 10  1  0  0  0
M  END
> <minimizedAffinity>
-9.59799

$$$$



 44 48  0  0  0  0  0  0  0  0999 V2000
   -8.5492   19.0414   -9.0797 C   0  0  0  0  0  0  0  0  0  0  0  0
   -7.5988   18.0623   -9.2152 N   0  0  0  0  0  0  0  0  0  0  0  0
   -6.8927   17.8857  -10.3755 C   0  0  0  0  0  0  0  0  0  0  0  0
   -7.2852   18.7916  -11.3655 C   0  0  0  0  0  0  0  0  0  0  0  0
   -6.8863   18.9134  -12.6720 C   0  0  0  0  0  0  0  0  0  0  0  0
   -7.6190   19.9517  -13.1738 N   0  0  0  0  0  0  0  0  0  0  0  0
   -8.4700   20.5022  -12.2894 N   0  0  0  0  0  0  0  0  0  0  0  0
   -8.2835   19.7815  -11.1822 C   0  0  0  0  0  0  0  0  0  0  0  0
   -8.9413   19.9344  -10.0198 N   0  0  0  0  0  0  0  0  0  0  0  0
   -7.5912   20.3360  -14.1102 H   0  0  0  0  0  0  0  0  0  0  0  0
   -9.2213   19.2048   -7.8704 N   0  0  0  0  0  0  0  0  0  0  0  0
   -9.9907   18.5459   -7.8271 H   0  0  0  0  0  0  0  0  0  0  0  0
   -9.3440   19.8722   -5.5615 C   0  0  0  0  0  0  0  0  0  0  0  0
   -9.4927   20.8309   -4.5577 C   0  0  0  0  0  0  0  0  0  0  0  0
   -9.5483   22.2046   -4.8605 C   0  0  0  0  0  0  0  0  0  0  0  0
   -9.4484   22.5880   -6.2171 C   0  0  0  0  0  0  0  0  0  0  0  0
   -9.3845   24.0189   -6.6801 C   0  0  0  0  0  0  0  0  0  0  0  0
   -9.3371   21.5915   -7.2194 C   0  0  0  0  0  0  0  0  0  0  0  0
   -9.3186   20.2285   -6.9182 C   0  0  0  0  0  0  0  0  0  0  0  0
   -9.7240   23.1580   -3.6843 C   0  0  0  0  0  0  0  0  0  0  0  0
  -11.1446   23.1962   -3.1084 C   0  0  0  0  0  0  0  0  0  0  0  0
  -11.2281   24.2728   -2.0191 C   0  0  0  0  0  0  0  0  0  0  0  0
  -10.1808   24.1850   -0.9815 N   0  0  0  0  0  0  0  0  0  0  0  0
   -9.4893   25.4593   -0.8076 C   0  0  0  0  0  0  0  0  0  0  0  0
   -9.2501   23.0725   -1.1817 C   0  0  0  0  0  0  0  0  0  0  0  0
   -8.6538   22.9930   -2.5900 C   0  0  0  0  0  0  0  0  0  0  0  0
   -9.3031   18.5301   -5.2541 O   0  0  0  0  0  0  0  0  0  0  0  0
  -11.3110   17.3875   -4.6963 C   0  0  0  0  0  0  0  0  0  0  0  0
  -10.1312   18.1756   -4.1327 C   0  0  0  0  0  0  0  0  0  0  0  0
   -9.3493   17.3083   -3.1463 C   0  0  0  0  0  0  0  0  0  0  0  0
   -5.9507   16.8309  -10.4044 N   0  0  0  0  0  0  0  0  0  0  0  0
   -5.4496   16.9257   -9.5092 H   0  0  0  0  0  0  0  0  0  0  0  0
   -6.1847   15.4932  -10.7751 C   0  0  0  0  0  0  0  0  0  0  0  0
   -6.2451   15.1904  -12.1477 C   0  0  0  0  0  0  0  0  0  0  0  0
   -6.6059   13.9206  -12.5989 C   0  0  0  0  0  0  0  0  0  0  0  0
   -6.9454   12.9298  -11.6831 C   0  0  0  0  0  0  0  0  0  0  0  0
   -6.8856   13.2010  -10.3169 C   0  0  0  0  0  0  0  0  0  0  0  0
   -6.4649   14.4608   -9.8628 C   0  0  0  0  0  0  0  0  0  0  0  0
   -6.3189   14.6978   -8.1008 S   0  0  0  0  0  0  0  0  0  0  0  0
   -6.2475   13.3808   -7.4890 O   0  0  0  0  0  0  0  0  0  0  0  0
   -5.2396   15.6482   -7.9070 O   0  0  0  0  0  0  0  0  0  0  0  0
   -7.8653   15.4180   -7.5320 C   0  0  0  0  0  0  0  0  0  0  0  0
   -8.0619   15.2884   -6.0228 C   0  0  0  0  0  0  0  0  0  0  0  0
   -9.0805   14.9088   -8.2999 C   0  0  0  0  0  0  0  0  0  0  0  0
 28 29  1  0  0  0
 29 30  1  0  0  0
 29 27  1  0  0  0
 27 13  1  0  0  0
 13 14  2  0  0  0
 14 15  1  0  0  0
 15 20  1  0  0  0
 20 21  1  0  0  0
 21 22  1  0  0  0
 22 23  1  0  0  0
 23 24  1  0  0  0
 23 25  1  0  0  0
 25 26  1  0  0  0
 15 16  2  0  0  0
 16 17  1  0  0  0
 16 18  1  0  0  0
 18 19  2  0  0  0
 19 11  1  0  0  0
 11  1  1  0  0  0
  1  2  1  0  0  0
  2  3  2  0  0  0
  3 31  1  0  0  0
 31 33  1  0  0  0
 33 34  2  0  0  0
 34 35  1  0  0  0
 35 36  2  0  0  0
 36 37  1  0  0  0
 37 38  2  0  0  0
 38 39  1  0  0  0
 39 40  2  0  0  0
 39 41  2  0  0  0
 39 42  1  0  0  0
 42 43  1  0  0  0
 42 44  1  0  0  0
  3  4  1  0  0  0
  4  5  2  0  0  0
  5  6  1  0  0  0
  6  7  1  0  0  0
  7  8  2  0  0  0
  8  9  1  0  0  0
 19 13  1  0  0  0
 26 20  1  0  0  0
  9  1  2  0  0  0
 38 33  1  0  0  0
  8  4  1  0  0  0
 11 12  1  0  0  0
 31 32  1  0  0  0
  6 10  1  0  0  0
M  END
> <minimizedAffinity>
-9.55624

$$$$



 44 48  0  0  0  0  0  0  0  0999 V2000
   -8.9235   16.6015   -6.8355 C   0  0  0  0  0  0  0  0  0  0  0  0
   -8.8318   16.4618   -8.1964 N   0  0  0  0  0  0  0  0  0  0  0  0
   -7.9521   15.5916   -8.7836 C   0  0  0  0  0  0  0  0  0  0  0  0
   -7.1772   14.9173   -7.8350 C   0  0  0  0  0  0  0  0  0  0  0  0
   -6.1495   14.0233   -7.9950 C   0  0  0  0  0  0  0  0  0  0  0  0
   -5.7471   13.7110   -6.7272 N   0  0  0  0  0  0  0  0  0  0  0  0
   -6.4330   14.3467   -5.7603 N   0  0  0  0  0  0  0  0  0  0  0  0
   -7.3002   15.1037   -6.4349 C   0  0  0  0  0  0  0  0  0  0  0  0
   -8.1906   15.9555   -5.8972 N   0  0  0  0  0  0  0  0  0  0  0  0
   -5.0106   13.0746   -6.4485 H   0  0  0  0  0  0  0  0  0  0  0  0
   -9.8549   17.4764   -6.2807 N   0  0  0  0  0  0  0  0  0  0  0  0
  -10.7800   17.2320   -6.6162 H   0  0  0  0  0  0  0  0  0  0  0  0
   -9.9652   18.8553   -4.3115 C   0  0  0  0  0  0  0  0  0  0  0  0
   -9.9745   20.0944   -3.6686 C   0  0  0  0  0  0  0  0  0  0  0  0
   -9.7418   21.2882   -4.3775 C   0  0  0  0  0  0  0  0  0  0  0  0
   -9.4968   21.1964   -5.7663 C   0  0  0  0  0  0  0  0  0  0  0  0
   -9.1274   22.3720   -6.6307 C   0  0  0  0  0  0  0  0  0  0  0  0
   -9.5316   19.9289   -6.4005 C   0  0  0  0  0  0  0  0  0  0  0  0
   -9.7984   18.7509   -5.7005 C   0  0  0  0  0  0  0  0  0  0  0  0
   -9.7876   22.5819   -3.5728 C   0  0  0  0  0  0  0  0  0  0  0  0
  -11.1529   22.8879   -2.9454 C   0  0  0  0  0  0  0  0  0  0  0  0
  -11.1103   24.2641   -2.2695 C   0  0  0  0  0  0  0  0  0  0  0  0
   -9.9829   24.4598   -1.3357 N   0  0  0  0  0  0  0  0  0  0  0  0
   -9.2391   25.6789   -1.6403 C   0  0  0  0  0  0  0  0  0  0  0  0
   -9.1081   23.2912   -1.2211 C   0  0  0  0  0  0  0  0  0  0  0  0
   -8.6351   22.7219   -2.5617 C   0  0  0  0  0  0  0  0  0  0  0  0
  -10.2062   17.6949   -3.6094 O   0  0  0  0  0  0  0  0  0  0  0  0
  -12.1399   17.3105   -2.2822 C   0  0  0  0  0  0  0  0  0  0  0  0
  -10.7419   17.9240   -2.2944 C   0  0  0  0  0  0  0  0  0  0  0  0
   -9.8676   17.2485   -1.2380 C   0  0  0  0  0  0  0  0  0  0  0  0
   -7.9338   15.5467  -10.1973 N   0  0  0  0  0  0  0  0  0  0  0  0
   -8.9308   15.5737  -10.4558 H   0  0  0  0  0  0  0  0  0  0  0  0
   -7.1119   16.2961  -11.0601 C   0  0  0  0  0  0  0  0  0  0  0  0
   -7.2304   17.6978  -11.0313 C   0  0  0  0  0  0  0  0  0  0  0  0
   -6.5538   18.5054  -11.9455 C   0  0  0  0  0  0  0  0  0  0  0  0
   -5.7641   17.9244  -12.9326 C   0  0  0  0  0  0  0  0  0  0  0  0
   -5.6228   16.5382  -12.9783 C   0  0  0  0  0  0  0  0  0  0  0  0
   -6.2561   15.7299  -12.0213 C   0  0  0  0  0  0  0  0  0  0  0  0
   -5.9459   13.9744  -12.0863 S   0  0  0  0  0  0  0  0  0  0  0  0
   -5.6271   13.6397  -13.4647 O   0  0  0  0  0  0  0  0  0  0  0  0
   -4.9913   13.6915  -11.0306 O   0  0  0  0  0  0  0  0  0  0  0  0
   -7.5019   13.1468  -11.7294 C   0  0  0  0  0  0  0  0  0  0  0  0
   -7.3269   11.6629  -11.4122 C   0  0  0  0  0  0  0  0  0  0  0  0
   -8.5579   13.3673  -12.8074 C   0  0  0  0  0  0  0  0  0  0  0  0
 28 29  1  0  0  0
 29 30  1  0  0  0
 29 27  1  0  0  0
 27 13  1  0  0  0
 13 14  2  0  0  0
 14 15  1  0  0  0
 15 20  1  0  0  0
 20 21  1  0  0  0
 21 22  1  0  0  0
 22 23  1  0  0  0
 23 24  1  0  0  0
 23 25  1  0  0  0
 25 26  1  0  0  0
 15 16  2  0  0  0
 16 17  1  0  0  0
 16 18  1  0  0  0
 18 19  2  0  0  0
 19 11  1  0  0  0
 11  1  1  0  0  0
  1  2  1  0  0  0
  2  3  2  0  0  0
  3 31  1  0  0  0
 31 33  1  0  0  0
 33 34  2  0  0  0
 34 35  1  0  0  0
 35 36  2  0  0  0
 36 37  1  0  0  0
 37 38  2  0  0  0
 38 39  1  0  0  0
 39 40  2  0  0  0
 39 41  2  0  0  0
 39 42  1  0  0  0
 42 43  1  0  0  0
 42 44  1  0  0  0
  3  4  1  0  0  0
  4  5  2  0  0  0
  5  6  1  0  0  0
  6  7  1  0  0  0
  7  8  2  0  0  0
  8  9  1  0  0  0
 19 13  1  0  0  0
 26 20  1  0  0  0
  9  1  2  0  0  0
 38 33  1  0  0  0
  8  4  1  0  0  0
 11 12  1  0  0  0
 31 32  1  0  0  0
  6 10  1  0  0  0
M  END
> <minimizedAffinity>
-9.14875

$$$$



 44 48  0  0  0  0  0  0  0  0999 V2000
   -9.1155   20.2545   -7.5838 C   0  0  0  0  0  0  0  0  0  0  0  0
   -9.5604   19.6213   -6.4520 N   0  0  0  0  0  0  0  0  0  0  0  0
   -9.9729   20.3118   -5.3433 C   0  0  0  0  0  0  0  0  0  0  0  0
   -9.8530   21.6938   -5.5176 C   0  0  0  0  0  0  0  0  0  0  0  0
  -10.0889   22.7267   -4.6467 C   0  0  0  0  0  0  0  0  0  0  0  0
   -9.7800   23.8600   -5.3445 N   0  0  0  0  0  0  0  0  0  0  0  0
   -9.3512   23.6335   -6.5991 N   0  0  0  0  0  0  0  0  0  0  0  0
   -9.3755   22.3037   -6.7052 C   0  0  0  0  0  0  0  0  0  0  0  0
   -8.9973   21.5897   -7.7796 N   0  0  0  0  0  0  0  0  0  0  0  0
   -9.8361   24.8197   -5.0266 H   0  0  0  0  0  0  0  0  0  0  0  0
   -8.7350   19.5125   -8.6998 N   0  0  0  0  0  0  0  0  0  0  0  0
   -9.0254   20.0026   -9.5386 H   0  0  0  0  0  0  0  0  0  0  0  0
   -7.4929   17.8879   -9.9686 C   0  0  0  0  0  0  0  0  0  0  0  0
   -7.1488   16.5753  -10.2964 C   0  0  0  0  0  0  0  0  0  0  0  0
   -7.6368   15.4838   -9.5534 C   0  0  0  0  0  0  0  0  0  0  0  0
   -8.4896   15.7557   -8.4597 C   0  0  0  0  0  0  0  0  0  0  0  0
   -8.9994   14.7019   -7.5135 C   0  0  0  0  0  0  0  0  0  0  0  0
   -8.8539   17.0955   -8.1729 C   0  0  0  0  0  0  0  0  0  0  0  0
   -8.3968   18.1728   -8.9341 C   0  0  0  0  0  0  0  0  0  0  0  0
   -7.2031   14.0960  -10.0108 C   0  0  0  0  0  0  0  0  0  0  0  0
   -8.0331   13.5232  -11.1660 C   0  0  0  0  0  0  0  0  0  0  0  0
   -7.5866   12.0845  -11.4547 C   0  0  0  0  0  0  0  0  0  0  0  0
   -6.1315   11.9146  -11.6424 N   0  0  0  0  0  0  0  0  0  0  0  0
   -5.5987   10.8621  -10.7818 C   0  0  0  0  0  0  0  0  0  0  0  0
   -5.3761   13.1632  -11.5231 C   0  0  0  0  0  0  0  0  0  0  0  0
   -5.6891   13.9732  -10.2618 C   0  0  0  0  0  0  0  0  0  0  0  0
   -7.0189   18.9473  -10.7105 O   0  0  0  0  0  0  0  0  0  0  0  0
   -8.0679   20.3481  -12.3185 C   0  0  0  0  0  0  0  0  0  0  0  0
   -7.4978   18.9544  -12.0667 C   0  0  0  0  0  0  0  0  0  0  0  0
   -6.3506   18.6778  -13.0382 C   0  0  0  0  0  0  0  0  0  0  0  0
  -10.3938   19.5508   -4.2276 N   0  0  0  0  0  0  0  0  0  0  0  0
  -11.0221   18.8440   -4.6365 H   0  0  0  0  0  0  0  0  0  0  0  0
   -9.5869   19.0480   -3.1895 C   0  0  0  0  0  0  0  0  0  0  0  0
   -8.6327   19.9105   -2.6193 C   0  0  0  0  0  0  0  0  0  0  0  0
   -7.7049   19.4542   -1.6829 C   0  0  0  0  0  0  0  0  0  0  0  0
   -7.6915   18.1119   -1.3174 C   0  0  0  0  0  0  0  0  0  0  0  0
   -8.6315   17.2376   -1.8609 C   0  0  0  0  0  0  0  0  0  0  0  0
   -9.6025   17.7101   -2.7577 C   0  0  0  0  0  0  0  0  0  0  0  0
  -10.8314   16.5513   -3.3314 S   0  0  0  0  0  0  0  0  0  0  0  0
  -12.1318   17.0597   -2.9259 O   0  0  0  0  0  0  0  0  0  0  0  0
  -10.5475   16.3203   -4.7356 O   0  0  0  0  0  0  0  0  0  0  0  0
  -10.5938   15.0256   -2.4097 C   0  0  0  0  0  0  0  0  0  0  0  0
  -10.5011   13.7953   -3.3102 C   0  0  0  0  0  0  0  0  0  0  0  0
  -11.6220   14.8304   -1.3005 C   0  0  0  0  0  0  0  0  0  0  0  0
 28 29  1  0  0  0
 29 30  1  0  0  0
 29 27  1  0  0  0
 27 13  1  0  0  0
 13 14  2  0  0  0
 14 15  1  0  0  0
 15 20  1  0  0  0
 20 21  1  0  0  0
 21 22  1  0  0  0
 22 23  1  0  0  0
 23 24  1  0  0  0
 23 25  1  0  0  0
 25 26  1  0  0  0
 15 16  2  0  0  0
 16 17  1  0  0  0
 16 18  1  0  0  0
 18 19  2  0  0  0
 19 11  1  0  0  0
 11  1  1  0  0  0
  1  2  1  0  0  0
  2  3  2  0  0  0
  3 31  1  0  0  0
 31 33  1  0  0  0
 33 34  2  0  0  0
 34 35  1  0  0  0
 35 36  2  0  0  0
 36 37  1  0  0  0
 37 38  2  0  0  0
 38 39  1  0  0  0
 39 40  2  0  0  0
 39 41  2  0  0  0
 39 42  1  0  0  0
 42 43  1  0  0  0
 42 44  1  0  0  0
  3  4  1  0  0  0
  4  5  2  0  0  0
  5  6  1  0  0  0
  6  7  1  0  0  0
  7  8  2  0  0  0
  8  9  1  0  0  0
 19 13  1  0  0  0
 26 20  1  0  0  0
  9  1  2  0  0  0
 38 33  1  0  0  0
  8  4  1  0  0  0
 11 12  1  0  0  0
 31 32  1  0  0  0
  6 10  1  0  0  0
M  END
> <minimizedAffinity>
-9.04945

$$$$



 44 48  0  0  0  0  0  0  0  0999 V2000
   -8.3386   17.3295   -6.5781 C   0  0  0  0  0  0  0  0  0  0  0  0
   -7.6933   17.7913   -7.6964 N   0  0  0  0  0  0  0  0  0  0  0  0
   -6.6970   17.0798   -8.3106 C   0  0  0  0  0  0  0  0  0  0  0  0
   -6.4282   15.8806   -7.6439 C   0  0  0  0  0  0  0  0  0  0  0  0
   -5.4779   14.9209   -7.8824 C   0  0  0  0  0  0  0  0  0  0  0  0
   -5.6608   13.9859   -6.9030 N   0  0  0  0  0  0  0  0  0  0  0  0
   -6.6531   14.2774   -6.0429 N   0  0  0  0  0  0  0  0  0  0  0  0
   -7.1158   15.4495   -6.4813 C   0  0  0  0  0  0  0  0  0  0  0  0
   -8.1020   16.1699   -5.9193 N   0  0  0  0  0  0  0  0  0  0  0  0
   -5.1442   13.1268   -6.7603 H   0  0  0  0  0  0  0  0  0  0  0  0
   -9.3679   18.0726   -6.0045 N   0  0  0  0  0  0  0  0  0  0  0  0
  -10.2574   17.6559   -6.2558 H   0  0  0  0  0  0  0  0  0  0  0  0
   -9.5708   19.5441   -4.1110 C   0  0  0  0  0  0  0  0  0  0  0  0
   -9.7490   20.8045   -3.5381 C   0  0  0  0  0  0  0  0  0  0  0  0
   -9.7825   21.9692   -4.3281 C   0  0  0  0  0  0  0  0  0  0  0  0
   -9.6294   21.8256   -5.7257 C   0  0  0  0  0  0  0  0  0  0  0  0
   -9.5370   22.9851   -6.6812 C   0  0  0  0  0  0  0  0  0  0  0  0
   -9.4889   20.5303   -6.2847 C   0  0  0  0  0  0  0  0  0  0  0  0
   -9.4923   19.3748   -5.5015 C   0  0  0  0  0  0  0  0  0  0  0  0
   -9.9940   23.2882   -3.5941 C   0  0  0  0  0  0  0  0  0  0  0  0
  -11.1562   23.2755   -2.5939 C   0  0  0  0  0  0  0  0  0  0  0  0
  -11.3482   24.6817   -2.0123 C   0  0  0  0  0  0  0  0  0  0  0  0
  -10.1208   25.3000   -1.4715 N   0  0  0  0  0  0  0  0  0  0  0  0
   -9.8991   26.6307   -2.0305 C   0  0  0  0  0  0  0  0  0  0  0  0
   -8.9363   24.4469   -1.5858 C   0  0  0  0  0  0  0  0  0  0  0  0
   -8.7053   23.8702   -2.9854 C   0  0  0  0  0  0  0  0  0  0  0  0
   -9.5519   18.4103   -3.3288 O   0  0  0  0  0  0  0  0  0  0  0  0
  -11.6993   17.4076   -3.1511 C   0  0  0  0  0  0  0  0  0  0  0  0
  -10.6842   18.3054   -2.4480 C   0  0  0  0  0  0  0  0  0  0  0  0
  -10.2677   17.6781   -1.1177 C   0  0  0  0  0  0  0  0  0  0  0  0
   -6.0910   17.6652   -9.4467 N   0  0  0  0  0  0  0  0  0  0  0  0
   -5.5580   16.8898   -9.8666 H   0  0  0  0  0  0  0  0  0  0  0  0
   -6.7024   18.5031  -10.3984 C   0  0  0  0  0  0  0  0  0  0  0  0
   -7.4036   19.6299   -9.9310 C   0  0  0  0  0  0  0  0  0  0  0  0
   -8.1492   20.4338  -10.7934 C   0  0  0  0  0  0  0  0  0  0  0  0
   -8.2351   20.1091  -12.1435 C   0  0  0  0  0  0  0  0  0  0  0  0
   -7.5432   19.0028  -12.6342 C   0  0  0  0  0  0  0  0  0  0  0  0
   -6.7451   18.2294  -11.7768 C   0  0  0  0  0  0  0  0  0  0  0  0
   -5.8123   16.8912  -12.4989 S   0  0  0  0  0  0  0  0  0  0  0  0
   -6.1367   16.8496  -13.9155 O   0  0  0  0  0  0  0  0  0  0  0  0
   -4.4376   17.0787  -12.0737 O   0  0  0  0  0  0  0  0  0  0  0  0
   -6.4543   15.3616  -11.8050 C   0  0  0  0  0  0  0  0  0  0  0  0
   -5.4538   14.2097  -11.8779 C   0  0  0  0  0  0  0  0  0  0  0  0
   -7.8080   14.9638  -12.3840 C   0  0  0  0  0  0  0  0  0  0  0  0
 28 29  1  0  0  0
 29 30  1  0  0  0
 29 27  1  0  0  0
 27 13  1  0  0  0
 13 14  2  0  0  0
 14 15  1  0  0  0
 15 20  1  0  0  0
 20 21  1  0  0  0
 21 22  1  0  0  0
 22 23  1  0  0  0
 23 24  1  0  0  0
 23 25  1  0  0  0
 25 26  1  0  0  0
 15 16  2  0  0  0
 16 17  1  0  0  0
 16 18  1  0  0  0
 18 19  2  0  0  0
 19 11  1  0  0  0
 11  1  1  0  0  0
  1  2  1  0  0  0
  2  3  2  0  0  0
  3 31  1  0  0  0
 31 33  1  0  0  0
 33 34  2  0  0  0
 34 35  1  0  0  0
 35 36  2  0  0  0
 36 37  1  0  0  0
 37 38  2  0  0  0
 38 39  1  0  0  0
 39 40  2  0  0  0
 39 41  2  0  0  0
 39 42  1  0  0  0
 42 43  1  0  0  0
 42 44  1  0  0  0
  3  4  1  0  0  0
  4  5  2  0  0  0
  5  6  1  0  0  0
  6  7  1  0  0  0
  7  8  2  0  0  0
  8  9  1  0  0  0
 19 13  1  0  0  0
 26 20  1  0  0  0
  9  1  2  0  0  0
 38 33  1  0  0  0
  8  4  1  0  0  0
 11 12  1  0  0  0
 31 32  1  0  0  0
  6 10  1  0  0  0
M  END
> <minimizedAffinity>
-8.93722

$$$$



 44 48  0  0  0  0  0  0  0  0999 V2000
   -9.3490   20.0493   -7.3443 C   0  0  0  0  0  0  0  0  0  0  0  0
   -9.1632   18.6919   -7.3998 N   0  0  0  0  0  0  0  0  0  0  0  0
   -8.6637   18.0681   -8.5122 C   0  0  0  0  0  0  0  0  0  0  0  0
   -8.4087   18.9747   -9.5456 C   0  0  0  0  0  0  0  0  0  0  0  0
   -7.9740   18.7649  -10.8294 C   0  0  0  0  0  0  0  0  0  0  0  0
   -7.9293   20.0061  -11.3987 N   0  0  0  0  0  0  0  0  0  0  0  0
   -8.3140   21.0011  -10.5793 N   0  0  0  0  0  0  0  0  0  0  0  0
   -8.6281   20.3719   -9.4455 C   0  0  0  0  0  0  0  0  0  0  0  0
   -9.1030   20.9480   -8.3275 N   0  0  0  0  0  0  0  0  0  0  0  0
   -7.6484   20.2473  -12.3411 H   0  0  0  0  0  0  0  0  0  0  0  0
   -9.8305   20.6449   -6.1806 N   0  0  0  0  0  0  0  0  0  0  0  0
  -10.3849   21.4568   -6.4288 H   0  0  0  0  0  0  0  0  0  0  0  0
   -9.5772   21.8063   -4.0881 C   0  0  0  0  0  0  0  0  0  0  0  0
   -9.1843   21.8721   -2.7501 C   0  0  0  0  0  0  0  0  0  0  0  0
   -8.7304   20.7298   -2.0638 C   0  0  0  0  0  0  0  0  0  0  0  0
   -8.6837   19.5074   -2.7715 C   0  0  0  0  0  0  0  0  0  0  0  0
   -8.3241   18.1885   -2.1414 C   0  0  0  0  0  0  0  0  0  0  0  0
   -9.0517   19.4769   -4.1403 C   0  0  0  0  0  0  0  0  0  0  0  0
   -9.4670   20.6190   -4.8274 C   0  0  0  0  0  0  0  0  0  0  0  0
   -8.3173   20.9243   -0.6096 C   0  0  0  0  0  0  0  0  0  0  0  0
   -7.1765   21.9284   -0.4055 C   0  0  0  0  0  0  0  0  0  0  0  0
   -6.7683   21.9479    1.0728 C   0  0  0  0  0  0  0  0  0  0  0  0
   -7.8856   22.1349    2.0204 N   0  0  0  0  0  0  0  0  0  0  0  0
   -7.8923   21.1024    3.0529 C   0  0  0  0  0  0  0  0  0  0  0  0
   -9.1892   22.2745    1.3682 C   0  0  0  0  0  0  0  0  0  0  0  0
   -9.5013   21.1838    0.3396 C   0  0  0  0  0  0  0  0  0  0  0  0
  -10.0081   22.9333   -4.7526 O   0  0  0  0  0  0  0  0  0  0  0  0
   -8.4730   24.0408   -6.1896 C   0  0  0  0  0  0  0  0  0  0  0  0
   -9.0352   23.9924   -4.7710 C   0  0  0  0  0  0  0  0  0  0  0  0
   -9.6947   25.3276   -4.4265 C   0  0  0  0  0  0  0  0  0  0  0  0
   -8.5331   16.6607   -8.4600 N   0  0  0  0  0  0  0  0  0  0  0  0
   -9.0483   16.3361   -9.2911 H   0  0  0  0  0  0  0  0  0  0  0  0
   -7.3594   15.9256   -8.2073 C   0  0  0  0  0  0  0  0  0  0  0  0
   -6.4279   16.4621   -7.2996 C   0  0  0  0  0  0  0  0  0  0  0  0
   -5.1828   15.8672   -7.0958 C   0  0  0  0  0  0  0  0  0  0  0  0
   -4.8284   14.7344   -7.8216 C   0  0  0  0  0  0  0  0  0  0  0  0
   -5.7361   14.1774   -8.7213 C   0  0  0  0  0  0  0  0  0  0  0  0
   -7.0111   14.7420   -8.8816 C   0  0  0  0  0  0  0  0  0  0  0  0
   -8.1503   13.9135   -9.9762 S   0  0  0  0  0  0  0  0  0  0  0  0
   -7.6833   12.5461  -10.1363 O   0  0  0  0  0  0  0  0  0  0  0  0
   -9.4782   14.1707   -9.4506 O   0  0  0  0  0  0  0  0  0  0  0  0
   -7.9839   14.6798  -11.5945 C   0  0  0  0  0  0  0  0  0  0  0  0
   -8.0143   13.6672  -12.7377 C   0  0  0  0  0  0  0  0  0  0  0  0
   -6.7747   15.6033  -11.6977 C   0  0  0  0  0  0  0  0  0  0  0  0
 28 29  1  0  0  0
 29 30  1  0  0  0
 29 27  1  0  0  0
 27 13  1  0  0  0
 13 14  2  0  0  0
 14 15  1  0  0  0
 15 20  1  0  0  0
 20 21  1  0  0  0
 21 22  1  0  0  0
 22 23  1  0  0  0
 23 24  1  0  0  0
 23 25  1  0  0  0
 25 26  1  0  0  0
 15 16  2  0  0  0
 16 17  1  0  0  0
 16 18  1  0  0  0
 18 19  2  0  0  0
 19 11  1  0  0  0
 11  1  1  0  0  0
  1  2  1  0  0  0
  2  3  2  0  0  0
  3 31  1  0  0  0
 31 33  1  0  0  0
 33 34  2  0  0  0
 34 35  1  0  0  0
 35 36  2  0  0  0
 36 37  1  0  0  0
 37 38  2  0  0  0
 38 39  1  0  0  0
 39 40  2  0  0  0
 39 41  2  0  0  0
 39 42  1  0  0  0
 42 43  1  0  0  0
 42 44  1  0  0  0
  3  4  1  0  0  0
  4  5  2  0  0  0
  5  6  1  0  0  0
  6  7  1  0  0  0
  7  8  2  0  0  0
  8  9  1  0  0  0
 19 13  1  0  0  0
 26 20  1  0  0  0
  9  1  2  0  0  0
 38 33  1  0  0  0
  8  4  1  0  0  0
 11 12  1  0  0  0
 31 32  1  0  0  0
  6 10  1  0  0  0
M  END
> <minimizedAffinity>
-8.92295

$$$$



 44 48  0  0  0  0  0  0  0  0999 V2000
   -9.8852   22.2880   -6.0244 C   0  0  0  0  0  0  0  0  0  0  0  0
   -9.6181   22.1412   -4.6875 N   0  0  0  0  0  0  0  0  0  0  0  0
   -9.4064   23.2142   -3.8630 C   0  0  0  0  0  0  0  0  0  0  0  0
   -9.4724   24.4250   -4.5589 C   0  0  0  0  0  0  0  0  0  0  0  0
   -9.2580   25.7113   -4.1338 C   0  0  0  0  0  0  0  0  0  0  0  0
   -9.4329   26.4882   -5.2439 N   0  0  0  0  0  0  0  0  0  0  0  0
   -9.7339   25.7964   -6.3575 N   0  0  0  0  0  0  0  0  0  0  0  0
   -9.7407   24.5268   -5.9474 C   0  0  0  0  0  0  0  0  0  0  0  0
   -9.9617   23.4484   -6.7191 N   0  0  0  0  0  0  0  0  0  0  0  0
   -9.3602   27.4957   -5.3145 H   0  0  0  0  0  0  0  0  0  0  0  0
  -10.1250   21.1694   -6.8193 N   0  0  0  0  0  0  0  0  0  0  0  0
  -11.1144   20.9490   -6.7917 H   0  0  0  0  0  0  0  0  0  0  0  0
   -9.1265   19.0019   -6.5084 C   0  0  0  0  0  0  0  0  0  0  0  0
   -8.3144   17.9440   -6.9209 C   0  0  0  0  0  0  0  0  0  0  0  0
   -7.7366   17.9225   -8.2044 C   0  0  0  0  0  0  0  0  0  0  0  0
   -8.0035   19.0083   -9.0688 C   0  0  0  0  0  0  0  0  0  0  0  0
   -7.5444   19.0707  -10.5009 C   0  0  0  0  0  0  0  0  0  0  0  0
   -8.7999   20.0880   -8.6104 C   0  0  0  0  0  0  0  0  0  0  0  0
   -9.3416   20.1228   -7.3243 C   0  0  0  0  0  0  0  0  0  0  0  0
   -6.8591   16.7222   -8.5398 C   0  0  0  0  0  0  0  0  0  0  0  0
   -6.1076   16.1337   -7.3396 C   0  0  0  0  0  0  0  0  0  0  0  0
   -5.1701   15.0180   -7.8180 C   0  0  0  0  0  0  0  0  0  0  0  0
   -5.8117   13.9916   -8.6642 N   0  0  0  0  0  0  0  0  0  0  0  0
   -5.0819   13.7928   -9.9132 C   0  0  0  0  0  0  0  0  0  0  0  0
   -7.2395   14.2265   -8.8883 C   0  0  0  0  0  0  0  0  0  0  0  0
   -7.5800   15.6412   -9.3654 C   0  0  0  0  0  0  0  0  0  0  0  0
   -9.6766   19.0177   -5.2456 O   0  0  0  0  0  0  0  0  0  0  0  0
   -9.3116   17.3341   -3.6083 C   0  0  0  0  0  0  0  0  0  0  0  0
  -10.1568   17.7318   -4.8159 C   0  0  0  0  0  0  0  0  0  0  0  0
  -11.6291   17.8201   -4.4145 C   0  0  0  0  0  0  0  0  0  0  0  0
   -9.1211   22.9394   -2.5051 N   0  0  0  0  0  0  0  0  0  0  0  0
   -9.1432   23.8672   -2.0578 H   0  0  0  0  0  0  0  0  0  0  0  0
   -9.6796   21.9216   -1.7091 C   0  0  0  0  0  0  0  0  0  0  0  0
   -8.8985   20.7791   -1.4559 C   0  0  0  0  0  0  0  0  0  0  0  0
   -9.4231   19.6697   -0.7926 C   0  0  0  0  0  0  0  0  0  0  0  0
  -10.7558   19.6667   -0.3932 C   0  0  0  0  0  0  0  0  0  0  0  0
  -11.5495   20.7893   -0.6243 C   0  0  0  0  0  0  0  0  0  0  0  0
  -11.0044   21.9278   -1.2382 C   0  0  0  0  0  0  0  0  0  0  0  0
  -12.0559   23.3587   -1.4081 S   0  0  0  0  0  0  0  0  0  0  0  0
  -11.2491   24.5299   -1.1061 O   0  0  0  0  0  0  0  0  0  0  0  0
  -12.7026   23.2361   -2.7014 O   0  0  0  0  0  0  0  0  0  0  0  0
  -13.2918   23.2671   -0.1052 C   0  0  0  0  0  0  0  0  0  0  0  0
  -14.7006   23.0147   -0.6389 C   0  0  0  0  0  0  0  0  0  0  0  0
  -13.2574   24.4654    0.8374 C   0  0  0  0  0  0  0  0  0  0  0  0
 28 29  1  0  0  0
 29 30  1  0  0  0
 29 27  1  0  0  0
 27 13  1  0  0  0
 13 14  2  0  0  0
 14 15  1  0  0  0
 15 20  1  0  0  0
 20 21  1  0  0  0
 21 22  1  0  0  0
 22 23  1  0  0  0
 23 24  1  0  0  0
 23 25  1  0  0  0
 25 26  1  0  0  0
 15 16  2  0  0  0
 16 17  1  0  0  0
 16 18  1  0  0  0
 18 19  2  0  0  0
 19 11  1  0  0  0
 11  1  1  0  0  0
  1  2  1  0  0  0
  2  3  2  0  0  0
  3 31  1  0  0  0
 31 33  1  0  0  0
 33 34  2  0  0  0
 34 35  1  0  0  0
 35 36  2  0  0  0
 36 37  1  0  0  0
 37 38  2  0  0  0
 38 39  1  0  0  0
 39 40  2  0  0  0
 39 41  2  0  0  0
 39 42  1  0  0  0
 42 43  1  0  0  0
 42 44  1  0  0  0
  3  4  1  0  0  0
  4  5  2  0  0  0
  5  6  1  0  0  0
  6  7  1  0  0  0
  7  8  2  0  0  0
  8  9  1  0  0  0
 19 13  1  0  0  0
 26 20  1  0  0  0
  9  1  2  0  0  0
 38 33  1  0  0  0
  8  4  1  0  0  0
 11 12  1  0  0  0
 31 32  1  0  0  0
  6 10  1  0  0  0
M  END
> <minimizedAffinity>
-8.59447

$$$$
