Molecule_0
     RDKit          3D

 80 84  0  0  0  0  0  0  0  0999 V2000
   -4.4155   -5.1755   -1.3223 C   0  0  0  0  0  0  0  0  0  0  0  0
   -3.3451   -4.5509   -0.4273 C   0  0  0  0  0  0  0  0  0  0  0  0
   -2.4962   -5.6503    0.2064 C   0  0  0  0  0  0  0  0  0  0  0  0
   -2.4737   -3.7571   -1.2473 O   0  0  0  0  0  0  0  0  0  0  0  0
   -2.5409   -2.3963   -1.0612 C   0  0  0  0  0  0  0  0  0  0  0  0
   -3.7438   -1.7015   -0.9160 C   0  0  0  0  0  0  0  0  0  0  0  0
   -3.7971   -0.2906   -0.7982 C   0  0  0  0  0  0  0  0  0  0  0  0
   -5.2083    0.2998   -0.6988 C   0  0  0  0  0  0  0  0  0  0  0  0
   -5.7535    0.3177    0.7371 C   0  0  0  0  0  0  0  0  0  0  0  0
   -5.7485    1.6969    1.3864 C   0  0  0  0  0  0  0  0  0  0  0  0
   -6.4293    2.6716    0.5281 N   0  0  0  0  0  0  0  0  0  0  0  0
   -6.5831    3.9453    1.2308 C   0  0  0  0  0  0  0  0  0  0  0  0
   -5.6863    2.8598   -0.7209 C   0  0  0  0  0  0  0  0  0  0  0  0
   -5.5559    1.5591   -1.5160 C   0  0  0  0  0  0  0  0  0  0  0  0
   -2.5713    0.4005   -0.7844 C   0  0  0  0  0  0  0  0  0  0  0  0
   -2.4451    1.8862   -0.6252 C   0  0  0  0  0  0  0  0  0  0  0  0
   -1.3596   -0.3188   -0.9516 C   0  0  0  0  0  0  0  0  0  0  0  0
   -1.3242   -1.7033   -1.1273 C   0  0  0  0  0  0  0  0  0  0  0  0
   -0.1517   -2.4462   -1.3237 N   0  0  0  0  0  0  0  0  0  0  0  0
    1.2054   -2.1579   -1.4308 C   0  0  0  0  0  0  0  0  0  0  0  0
    1.6900   -0.9434   -1.0108 N   0  0  0  0  0  0  0  0  0  0  0  0
    3.0202   -0.6287   -1.0872 C   0  0  0  0  0  0  0  0  0  0  0  0
    3.4253    0.6236   -0.5757 N   0  0  0  0  0  0  0  0  0  0  0  0
    4.7383    1.1351   -0.5349 C   0  0  0  0  0  0  0  0  0  0  0  0
    5.3237    1.5354   -1.7515 C   0  0  0  0  0  0  0  0  0  0  0  0
    6.6584    1.9369   -1.8254 C   0  0  0  0  0  0  0  0  0  0  0  0
    7.4484    1.9209   -0.6816 C   0  0  0  0  0  0  0  0  0  0  0  0
    6.8940    1.5355    0.5383 C   0  0  0  0  0  0  0  0  0  0  0  0
    5.5383    1.1797    0.6213 C   0  0  0  0  0  0  0  0  0  0  0  0
    4.8967    0.7529    2.2301 S   0  0  0  0  0  6  0  0  0  0  0  0
    3.4865    0.4347    2.0649 O   0  0  0  0  0  0  0  0  0  0  0  0
    5.8038   -0.2420    2.7800 O   0  0  0  0  0  0  0  0  0  0  0  0
    4.9525    2.2422    3.2425 C   0  0  0  0  0  0  0  0  0  0  0  0
    6.2551    2.3705    4.0251 C   0  0  0  0  0  0  0  0  0  0  0  0
    4.6304    3.5124    2.4606 C   0  0  0  0  0  0  0  0  0  0  0  0
    3.7757   -1.6754   -1.6220 C   0  0  0  0  0  0  0  0  0  0  0  0
    5.1307   -1.7957   -1.7991 C   0  0  0  0  0  0  0  0  0  0  0  0
    5.3128   -3.0485   -2.3243 N   0  0  0  0  0  0  0  0  0  0  0  0
    4.1767   -3.7442   -2.4910 N   0  0  0  0  0  0  0  0  0  0  0  0
    3.2315   -2.9144   -2.0363 C   0  0  0  0  0  0  0  0  0  0  0  0
    1.9190   -3.1865   -1.9467 N   0  0  0  0  0  0  0  0  0  0  0  0
   -3.9593   -5.7422   -2.1404 H   0  0  0  0  0  0  0  0  0  0  0  0
   -5.0352   -4.4087   -1.7893 H   0  0  0  0  0  0  0  0  0  0  0  0
   -5.0672   -5.8485   -0.7520 H   0  0  0  0  0  0  0  0  0  0  0  0
   -3.8030   -3.9768    0.3851 H   0  0  0  0  0  0  0  0  0  0  0  0
   -1.9849   -6.2432   -0.5594 H   0  0  0  0  0  0  0  0  0  0  0  0
   -1.7113   -5.2146    0.8399 H   0  0  0  0  0  0  0  0  0  0  0  0
   -3.1082   -6.3206    0.8239 H   0  0  0  0  0  0  0  0  0  0  0  0
   -4.6756   -2.2576   -0.9290 H   0  0  0  0  0  0  0  0  0  0  0  0
   -5.8253   -0.4667   -1.2024 H   0  0  0  0  0  0  0  0  0  0  0  0
   -5.2276   -0.3972    1.3818 H   0  0  0  0  0  0  0  0  0  0  0  0
   -6.7961   -0.0227    0.7009 H   0  0  0  0  0  0  0  0  0  0  0  0
   -4.7242    2.0121    1.6218 H   0  0  0  0  0  0  0  0  0  0  0  0
   -6.2831    1.6108    2.3410 H   0  0  0  0  0  0  0  0  0  0  0  0
   -5.6187    4.3781    1.5232 H   0  0  0  0  0  0  0  0  0  0  0  0
   -7.1129    4.6672    0.6017 H   0  0  0  0  0  0  0  0  0  0  0  0
   -7.1892    3.8165    2.1355 H   0  0  0  0  0  0  0  0  0  0  0  0
   -4.7029    3.2945   -0.5250 H   0  0  0  0  0  0  0  0  0  0  0  0
   -6.2177    3.5793   -1.3584 H   0  0  0  0  0  0  0  0  0  0  0  0
   -4.8708    1.6901   -2.3610 H   0  0  0  0  0  0  0  0  0  0  0  0
   -6.5446    1.3829   -1.9719 H   0  0  0  0  0  0  0  0  0  0  0  0
   -1.4002    2.1904   -0.5052 H   0  0  0  0  0  0  0  0  0  0  0  0
   -2.9626    2.2179    0.2737 H   0  0  0  0  0  0  0  0  0  0  0  0
   -2.8213    2.4003   -1.5122 H   0  0  0  0  0  0  0  0  0  0  0  0
   -0.4265    0.2378   -0.9687 H   0  0  0  0  0  0  0  0  0  0  0  0
   -0.3280   -3.4025   -1.6230 H   0  0  0  0  0  0  0  0  0  0  0  0
    2.9281    0.6926    0.3185 H   0  0  0  0  0  0  0  0  0  0  0  0
    4.7271    1.5188   -2.6628 H   0  0  0  0  0  0  0  0  0  0  0  0
    7.0877    2.2361   -2.7786 H   0  0  0  0  0  0  0  0  0  0  0  0
    8.4978    2.2031   -0.7415 H   0  0  0  0  0  0  0  0  0  0  0  0
    7.5330    1.4968    1.4145 H   0  0  0  0  0  0  0  0  0  0  0  0
    4.1480    2.0940    3.9754 H   0  0  0  0  0  0  0  0  0  0  0  0
    6.2685    3.2771    4.6470 H   0  0  0  0  0  0  0  0  0  0  0  0
    6.3964    1.5136    4.6963 H   0  0  0  0  0  0  0  0  0  0  0  0
    7.1270    2.4182    3.3638 H   0  0  0  0  0  0  0  0  0  0  0  0
    5.4741    3.8268    1.8369 H   0  0  0  0  0  0  0  0  0  0  0  0
    4.3924    4.3425    3.1381 H   0  0  0  0  0  0  0  0  0  0  0  0
    3.7651    3.3639    1.8018 H   0  0  0  0  0  0  0  0  0  0  0  0
    5.9790   -1.1575   -1.6024 H   0  0  0  0  0  0  0  0  0  0  0  0
    6.1876   -3.4918   -2.5831 H   0  0  0  0  0  0  0  0  0  0  0  0
  1  2  1  0
  2  3  1  0
  2  4  1  0
  4  5  1  0
  5  6  2  0
  6  7  1  0
  7  8  1  0
  8  9  1  0
  9 10  1  0
 10 11  1  0
 11 12  1  0
 11 13  1  0
 13 14  1  0
  7 15  2  0
 15 16  1  0
 15 17  1  0
 17 18  2  0
 18 19  1  0
 19 20  1  0
 20 21  1  0
 21 22  2  0
 22 23  1  0
 23 24  1  0
 24 25  2  0
 25 26  1  0
 26 27  2  0
 27 28  1  0
 28 29  2  0
 29 30  1  0
 30 31  2  0
 30 32  2  0
 30 33  1  0
 33 34  1  0
 33 35  1  0
 22 36  1  0
 36 37  2  0
 37 38  1  0
 38 39  1  0
 39 40  2  0
 40 41  1  0
 18  5  1  0
 14  8  1  0
 41 20  2  0
 29 24  1  0
 40 36  1  0
  1 42  1  0
  1 43  1  0
  1 44  1  0
  2 45  1  0
  3 46  1  0
  3 47  1  0
  3 48  1  0
  6 49  1  0
  8 50  1  0
  9 51  1  0
  9 52  1  0
 10 53  1  0
 10 54  1  0
 12 55  1  0
 12 56  1  0
 12 57  1  0
 13 58  1  0
 13 59  1  0
 14 60  1  0
 14 61  1  0
 16 62  1  0
 16 63  1  0
 16 64  1  0
 17 65  1  0
 19 66  1  0
 23 67  1  0
 25 68  1  0
 26 69  1  0
 27 70  1  0
 28 71  1  0
 33 72  1  0
 34 73  1  0
 34 74  1  0
 34 75  1  0
 35 76  1  0
 35 77  1  0
 35 78  1  0
 37 79  1  0
 38 80  1  0
M  END
$$$$
Molecule_1
     RDKit          3D

 81 84  0  0  0  0  0  0  0  0999 V2000
   -3.2903    0.1496    3.0335 C   0  0  0  0  0  0  0  0  0  0  0  0
   -2.8336    0.4149    1.6272 C   0  0  0  0  0  0  0  0  0  0  0  0
   -1.4563    0.2455    1.3690 C   0  0  0  0  0  0  0  0  0  0  0  0
   -0.9054    0.4455    0.1079 C   0  0  0  0  0  0  0  0  0  0  0  0
    0.4640    0.2679   -0.1694 N   0  0  0  0  0  0  0  0  0  0  0  0
    1.3852   -0.6350    0.3691 C   0  0  0  0  0  0  0  0  0  0  0  0
    1.0599   -1.4641    1.3709 N   0  0  0  0  0  0  0  0  0  0  0  0
    2.0094   -2.3294    1.7863 C   0  0  0  0  0  0  0  0  0  0  0  0
    3.2706   -2.4099    1.2390 C   0  0  0  0  0  0  0  0  0  0  0  0
    4.4218   -3.4754    1.9390 Cl  0  0  0  0  0  0  0  0  0  0  0  0
    3.5272   -1.5212    0.2105 C   0  0  0  0  0  0  0  0  0  0  0  0
    4.7707   -1.3814   -0.4121 N   0  0  0  0  0  0  0  0  0  0  0  0
    5.6362   -2.3219   -1.0055 C   0  0  0  0  0  0  0  0  0  0  0  0
    5.1864   -3.6067   -1.3580 C   0  0  0  0  0  0  0  0  0  0  0  0
    6.0427   -4.5285   -1.9573 C   0  0  0  0  0  0  0  0  0  0  0  0
    7.3600   -4.1809   -2.2311 C   0  0  0  0  0  0  0  0  0  0  0  0
    7.8322   -2.9073   -1.9005 C   0  0  0  0  0  0  0  0  0  0  0  0
    6.9829   -1.9919   -1.2774 C   0  0  0  0  0  0  0  0  0  0  0  0
    7.5370   -0.3511   -0.8267 S   0  0  0  0  0  0  0  0  0  0  0  0
    7.6763   -0.3346    0.6132 O   0  0  0  0  0  0  0  0  0  0  0  0
    6.5884    0.5383   -1.4860 O   0  0  0  0  0  0  0  0  0  0  0  0
    9.1433   -0.0093   -1.5447 C   0  0  0  0  0  0  0  0  0  0  0  0
    9.3830    1.5020   -1.5226 C   0  0  0  0  0  0  0  0  0  0  0  0
   10.2904   -0.7020   -0.8025 C   0  0  0  0  0  0  0  0  0  0  0  0
    2.5900   -0.6453   -0.2265 N   0  0  0  0  0  0  0  0  0  0  0  0
   -1.7534    0.9258   -0.8969 C   0  0  0  0  0  0  0  0  0  0  0  0
   -1.1759    1.1675   -2.1238 O   0  0  0  0  0  0  0  0  0  0  0  0
   -1.3667    2.4989   -2.6474 C   0  0  0  0  0  0  0  0  0  0  0  0
   -0.6906    2.5183   -4.0169 C   0  0  0  0  0  0  0  0  0  0  0  0
   -0.7227    3.5490   -1.7471 C   0  0  0  0  0  0  0  0  0  0  0  0
   -3.1208    1.0875   -0.6776 C   0  0  0  0  0  0  0  0  0  0  0  0
   -3.6845    0.8443    0.5870 C   0  0  0  0  0  0  0  0  0  0  0  0
   -5.1924    1.0308    0.7137 C   0  0  0  0  0  0  0  0  0  0  0  0
   -5.6617    1.9743    1.8303 C   0  0  0  0  0  0  0  0  0  0  0  0
   -7.1760    2.1825    1.7918 C   0  0  0  0  0  0  0  0  0  0  0  0
   -7.9236    1.0336    1.2633 N   0  0  0  0  0  0  0  0  0  0  0  0
   -9.3457    1.0671    1.6500 C   0  0  0  0  0  0  0  0  0  0  0  0
   -9.6838    0.6153    3.0849 C   0  0  0  0  0  0  0  0  0  0  0  0
   -9.6887   -0.8104    3.2097 O   0  0  0  0  0  0  0  0  0  0  0  0
   -7.2595   -0.2461    1.5093 C   0  0  0  0  0  0  0  0  0  0  0  0
   -5.9352   -0.3189    0.7504 C   0  0  0  0  0  0  0  0  0  0  0  0
   -2.5539   -0.4370    3.5853 H   0  0  0  0  0  0  0  0  0  0  0  0
   -3.4241    1.0875    3.5789 H   0  0  0  0  0  0  0  0  0  0  0  0
   -4.2158   -0.4388    3.0518 H   0  0  0  0  0  0  0  0  0  0  0  0
   -0.8078   -0.0734    2.1883 H   0  0  0  0  0  0  0  0  0  0  0  0
    0.6789    0.3716   -1.1489 H   0  0  0  0  0  0  0  0  0  0  0  0
    1.7114   -2.9681    2.6145 H   0  0  0  0  0  0  0  0  0  0  0  0
    4.7666   -0.5074   -0.9464 H   0  0  0  0  0  0  0  0  0  0  0  0
    4.1505   -3.8935   -1.1884 H   0  0  0  0  0  0  0  0  0  0  0  0
    5.6695   -5.5156   -2.2217 H   0  0  0  0  0  0  0  0  0  0  0  0
    8.0260   -4.8988   -2.6998 H   0  0  0  0  0  0  0  0  0  0  0  0
    8.8622   -2.6763   -2.1395 H   0  0  0  0  0  0  0  0  0  0  0  0
    9.1128   -0.3217   -2.5966 H   0  0  0  0  0  0  0  0  0  0  0  0
    8.5945    2.0358   -2.0563 H   0  0  0  0  0  0  0  0  0  0  0  0
    9.4085    1.8801   -0.4971 H   0  0  0  0  0  0  0  0  0  0  0  0
   10.3304    1.7516   -2.0080 H   0  0  0  0  0  0  0  0  0  0  0  0
   11.2338   -0.1741   -0.9833 H   0  0  0  0  0  0  0  0  0  0  0  0
   10.1354   -0.7223    0.2810 H   0  0  0  0  0  0  0  0  0  0  0  0
   10.4455   -1.7184   -1.1605 H   0  0  0  0  0  0  0  0  0  0  0  0
   -2.4311    2.7078   -2.7882 H   0  0  0  0  0  0  0  0  0  0  0  0
    0.3743    2.2658   -3.9380 H   0  0  0  0  0  0  0  0  0  0  0  0
   -0.7833    3.5044   -4.4870 H   0  0  0  0  0  0  0  0  0  0  0  0
   -1.1387    1.7765   -4.6813 H   0  0  0  0  0  0  0  0  0  0  0  0
   -1.2517    3.6254   -0.7940 H   0  0  0  0  0  0  0  0  0  0  0  0
    0.3195    3.2959   -1.5268 H   0  0  0  0  0  0  0  0  0  0  0  0
   -0.7546    4.5340   -2.2247 H   0  0  0  0  0  0  0  0  0  0  0  0
   -3.7478    1.3723   -1.5116 H   0  0  0  0  0  0  0  0  0  0  0  0
   -5.5261    1.5102   -0.2151 H   0  0  0  0  0  0  0  0  0  0  0  0
   -5.3998    1.5968    2.8171 H   0  0  0  0  0  0  0  0  0  0  0  0
   -5.1662    2.9471    1.7282 H   0  0  0  0  0  0  0  0  0  0  0  0
   -7.3974    3.0315    1.1378 H   0  0  0  0  0  0  0  0  0  0  0  0
   -7.5080    2.4666    2.7982 H   0  0  0  0  0  0  0  0  0  0  0  0
   -9.8927    0.4390    0.9330 H   0  0  0  0  0  0  0  0  0  0  0  0
   -9.7193    2.0909    1.5092 H   0  0  0  0  0  0  0  0  0  0  0  0
   -8.9810    1.0260    3.8136 H   0  0  0  0  0  0  0  0  0  0  0  0
  -10.6773    0.9665    3.3659 H   0  0  0  0  0  0  0  0  0  0  0  0
  -10.3084   -1.1478    2.5376 H   0  0  0  0  0  0  0  0  0  0  0  0
   -7.0857   -0.4068    2.5810 H   0  0  0  0  0  0  0  0  0  0  0  0
   -7.8879   -1.0772    1.1557 H   0  0  0  0  0  0  0  0  0  0  0  0
   -5.3265   -1.1193    1.1946 H   0  0  0  0  0  0  0  0  0  0  0  0
   -6.1252   -0.6363   -0.2843 H   0  0  0  0  0  0  0  0  0  0  0  0
  1  2  1  0
  2  3  2  0
  3  4  1  0
  4  5  1  0
  5  6  1  0
  6  7  2  0
  7  8  1  0
  8  9  2  0
  9 10  1  0
  9 11  1  0
 11 12  1  0
 12 13  1  0
 13 14  2  0
 14 15  1  0
 15 16  2  0
 16 17  1  0
 17 18  2  0
 18 19  1  0
 19 20  2  0
 19 21  2  0
 19 22  1  0
 22 23  1  0
 22 24  1  0
 11 25  2  0
  4 26  2  0
 26 27  1  0
 27 28  1  0
 28 29  1  0
 28 30  1  0
 26 31  1  0
 31 32  2  0
 32 33  1  0
 33 34  1  0
 34 35  1  0
 35 36  1  0
 36 37  1  0
 37 38  1  0
 38 39  1  0
 36 40  1  0
 40 41  1  0
 32  2  1  0
 41 33  1  0
 25  6  1  0
 18 13  1  0
  1 42  1  0
  1 43  1  0
  1 44  1  0
  3 45  1  0
  5 46  1  0
  8 47  1  0
 12 48  1  0
 14 49  1  0
 15 50  1  0
 16 51  1  0
 17 52  1  0
 22 53  1  0
 23 54  1  0
 23 55  1  0
 23 56  1  0
 24 57  1  0
 24 58  1  0
 24 59  1  0
 28 60  1  0
 29 61  1  0
 29 62  1  0
 29 63  1  0
 30 64  1  0
 30 65  1  0
 30 66  1  0
 31 67  1  0
 33 68  1  0
 34 69  1  0
 34 70  1  0
 35 71  1  0
 35 72  1  0
 37 73  1  0
 37 74  1  0
 38 75  1  0
 38 76  1  0
 39 77  1  0
 40 78  1  0
 40 79  1  0
 41 80  1  0
 41 81  1  0
M  END
$$$$
Molecule_2
     RDKit          3D

 74 77  0  0  0  0  0  0  0  0999 V2000
   -4.2893    0.3184   -3.0352 C   0  0  0  0  0  0  0  0  0  0  0  0
   -3.6345    0.3136   -1.6765 C   0  0  0  0  0  0  0  0  0  0  0  0
   -2.2961   -0.1316   -1.5925 C   0  0  0  0  0  0  0  0  0  0  0  0
   -1.5862   -0.1293   -0.3886 C   0  0  0  0  0  0  0  0  0  0  0  0
   -0.2403   -0.5114   -0.2763 N   0  0  0  0  0  0  0  0  0  0  0  0
    0.6761   -1.0279   -1.1824 C   0  0  0  0  0  0  0  0  0  0  0  0
    0.2797   -1.7329   -2.2506 N   0  0  0  0  0  0  0  0  0  0  0  0
    1.2447   -2.2533   -3.0337 C   0  0  0  0  0  0  0  0  0  0  0  0
    2.5879   -2.0850   -2.8019 C   0  0  0  0  0  0  0  0  0  0  0  0
    3.7523   -2.7788   -3.8548 Cl  0  0  0  0  0  0  0  0  0  0  0  0
    2.9200   -1.3286   -1.6876 C   0  0  0  0  0  0  0  0  0  0  0  0
    4.2728   -1.0394   -1.4029 N   0  0  0  0  0  0  0  0  0  0  0  0
    4.8827    0.2205   -1.2082 C   0  0  0  0  0  0  0  0  0  0  0  0
    4.1446    1.4144   -1.2794 C   0  0  0  0  0  0  0  0  0  0  0  0
    4.7516    2.6661   -1.1100 C   0  0  0  0  0  0  0  0  0  0  0  0
    6.1133    2.7551   -0.8457 C   0  0  0  0  0  0  0  0  0  0  0  0
    6.8641    1.5902   -0.7212 C   0  0  0  0  0  0  0  0  0  0  0  0
    6.2458    0.3354   -0.8690 C   0  0  0  0  0  0  0  0  0  0  0  0
    7.2489   -1.1192   -0.6401 S   0  0  0  0  0  0  0  0  0  0  0  0
    6.7475   -2.1148   -1.5788 O   0  0  0  0  0  0  0  0  0  0  0  0
    8.6417   -0.7092   -0.6844 O   0  0  0  0  0  0  0  0  0  0  0  0
    6.8659   -1.6791    1.0269 C   0  0  0  0  0  0  0  0  0  0  0  0
    7.1253   -0.6036    2.0730 C   0  0  0  0  0  0  0  0  0  0  0  0
    7.6682   -2.9396    1.3465 C   0  0  0  0  0  0  0  0  0  0  0  0
    1.9679   -0.8149   -0.8763 N   0  0  0  0  0  0  0  0  0  0  0  0
   -2.2983    0.2164    0.7679 C   0  0  0  0  0  0  0  0  0  0  0  0
   -1.7289    0.1442    2.0213 O   0  0  0  0  0  0  0  0  0  0  0  0
   -1.6317   -1.2104    2.5055 C   0  0  0  0  0  0  0  0  0  0  0  0
   -2.9996   -1.7888    2.8800 C   0  0  0  0  0  0  0  0  0  0  0  0
   -0.7361   -1.1621    3.7437 C   0  0  0  0  0  0  0  0  0  0  0  0
   -3.6055    0.7066    0.7037 C   0  0  0  0  0  0  0  0  0  0  0  0
   -4.2882    0.7918   -0.5195 C   0  0  0  0  0  0  0  0  0  0  0  0
   -5.7102    1.3351   -0.5618 C   0  0  0  0  0  0  0  0  0  0  0  0
   -5.9378    2.5846    0.3047 C   0  0  0  0  0  0  0  0  0  0  0  0
   -7.3835    3.0704    0.1581 C   0  0  0  0  0  0  0  0  0  0  0  0
   -8.3965    2.0192    0.2735 N   0  0  0  0  0  0  0  0  0  0  0  0
   -7.8511    0.7340    0.6969 C   0  0  0  0  0  0  0  0  0  0  0  0
   -6.7413    0.2386   -0.2294 C   0  0  0  0  0  0  0  0  0  0  0  0
   -5.3223   -0.0403   -2.9890 H   0  0  0  0  0  0  0  0  0  0  0  0
   -4.2681    1.3287   -3.4542 H   0  0  0  0  0  0  0  0  0  0  0  0
   -3.7652   -0.3505   -3.7286 H   0  0  0  0  0  0  0  0  0  0  0  0
   -1.8033   -0.4551   -2.5059 H   0  0  0  0  0  0  0  0  0  0  0  0
    0.2441   -0.0539    0.4832 H   0  0  0  0  0  0  0  0  0  0  0  0
    0.8846   -2.8320   -3.8788 H   0  0  0  0  0  0  0  0  0  0  0  0
    4.9117   -1.7366   -1.8076 H   0  0  0  0  0  0  0  0  0  0  0  0
    3.0800    1.3954   -1.5003 H   0  0  0  0  0  0  0  0  0  0  0  0
    4.1545    3.5716   -1.1993 H   0  0  0  0  0  0  0  0  0  0  0  0
    6.5883    3.7288   -0.7363 H   0  0  0  0  0  0  0  0  0  0  0  0
    7.9287    1.6681   -0.4998 H   0  0  0  0  0  0  0  0  0  0  0  0
    5.8011   -1.9379    1.0270 H   0  0  0  0  0  0  0  0  0  0  0  0
    8.1621   -0.2553    2.0429 H   0  0  0  0  0  0  0  0  0  0  0  0
    6.4764    0.2626    1.9229 H   0  0  0  0  0  0  0  0  0  0  0  0
    6.9207   -0.9826    3.0780 H   0  0  0  0  0  0  0  0  0  0  0  0
    8.7462   -2.7447    1.3210 H   0  0  0  0  0  0  0  0  0  0  0  0
    7.4604   -3.7334    0.6183 H   0  0  0  0  0  0  0  0  0  0  0  0
    7.4103   -3.3249    2.3407 H   0  0  0  0  0  0  0  0  0  0  0  0
   -1.1550   -1.8633    1.7655 H   0  0  0  0  0  0  0  0  0  0  0  0
   -2.8967   -2.7747    3.3494 H   0  0  0  0  0  0  0  0  0  0  0  0
   -3.6269   -1.9178    1.9911 H   0  0  0  0  0  0  0  0  0  0  0  0
   -3.5439   -1.1268    3.5645 H   0  0  0  0  0  0  0  0  0  0  0  0
    0.2318   -0.7068    3.4953 H   0  0  0  0  0  0  0  0  0  0  0  0
   -0.5660   -2.1682    4.1408 H   0  0  0  0  0  0  0  0  0  0  0  0
   -1.1841   -0.5419    4.5299 H   0  0  0  0  0  0  0  0  0  0  0  0
   -4.0808    0.9986    1.6346 H   0  0  0  0  0  0  0  0  0  0  0  0
   -5.9114    1.6739   -1.5847 H   0  0  0  0  0  0  0  0  0  0  0  0
   -5.2481    3.3871    0.0120 H   0  0  0  0  0  0  0  0  0  0  0  0
   -5.7415    2.3808    1.3647 H   0  0  0  0  0  0  0  0  0  0  0  0
   -7.5857    3.8343    0.9180 H   0  0  0  0  0  0  0  0  0  0  0  0
   -7.4999    3.5680   -0.8148 H   0  0  0  0  0  0  0  0  0  0  0  0
   -8.8756    1.9117   -0.6201 H   0  0  0  0  0  0  0  0  0  0  0  0
   -7.4722    0.8044    1.7214 H   0  0  0  0  0  0  0  0  0  0  0  0
   -8.6565   -0.0087    0.7232 H   0  0  0  0  0  0  0  0  0  0  0  0
   -7.1803   -0.1351   -1.1637 H   0  0  0  0  0  0  0  0  0  0  0  0
   -6.2635   -0.6285    0.2435 H   0  0  0  0  0  0  0  0  0  0  0  0
  1  2  1  0
  2  3  2  0
  3  4  1  0
  4  5  1  0
  5  6  1  0
  6  7  2  0
  7  8  1  0
  8  9  2  0
  9 10  1  0
  9 11  1  0
 11 12  1  0
 12 13  1  0
 13 14  2  0
 14 15  1  0
 15 16  2  0
 16 17  1  0
 17 18  2  0
 18 19  1  0
 19 20  2  0
 19 21  2  0
 19 22  1  0
 22 23  1  0
 22 24  1  0
 11 25  2  0
  4 26  2  0
 26 27  1  0
 27 28  1  0
 28 29  1  0
 28 30  1  0
 26 31  1  0
 31 32  2  0
 32 33  1  0
 33 34  1  0
 34 35  1  0
 35 36  1  0
 36 37  1  0
 37 38  1  0
 32  2  1  0
 38 33  1  0
 25  6  1  0
 18 13  1  0
  1 39  1  0
  1 40  1  0
  1 41  1  0
  3 42  1  0
  5 43  1  0
  8 44  1  0
 12 45  1  0
 14 46  1  0
 15 47  1  0
 16 48  1  0
 17 49  1  0
 22 50  1  0
 23 51  1  0
 23 52  1  0
 23 53  1  0
 24 54  1  0
 24 55  1  0
 24 56  1  0
 28 57  1  0
 29 58  1  0
 29 59  1  0
 29 60  1  0
 30 61  1  0
 30 62  1  0
 30 63  1  0
 31 64  1  0
 33 65  1  0
 34 66  1  0
 34 67  1  0
 35 68  1  0
 35 69  1  0
 36 70  1  0
 37 71  1  0
 37 72  1  0
 38 73  1  0
 38 74  1  0
M  END
$$$$
Molecule_3
     RDKit          3D

 48 51  0  0  0  0  0  0  0  0999 V2000
    0.8401    1.9244   -1.2689 C   0  0  0  0  0  0  0  0  0  0  0  0
    1.4865    0.7081   -0.5928 C   0  0  2  0  0  0  0  0  0  0  0  0
    0.5851    0.1288    0.3916 N   0  0  0  0  0  0  0  0  0  0  0  0
   -0.4916   -0.6477    0.0359 C   0  0  0  0  0  0  0  0  0  0  0  0
   -0.7334   -0.9895   -1.1203 O   0  0  0  0  0  0  0  0  0  0  0  0
   -1.3579   -1.1050    1.1932 C   0  0  0  0  0  0  0  0  0  0  0  0
   -2.1058    0.2761    2.0978 S   0  0  0  0  0  0  0  0  0  0  0  0
   -2.6746    1.2922    0.8100 C   0  0  0  0  0  0  0  0  0  0  0  0
   -2.1529    2.4792    0.5817 N   0  0  0  0  0  0  0  0  0  0  0  0
   -2.5925    2.9048   -0.6437 N   0  0  0  0  0  0  0  0  0  0  0  0
   -3.3762    1.9693   -1.1256 C   0  0  0  0  0  0  0  0  0  0  0  0
   -3.5305    0.9416   -0.2202 N   0  0  0  0  0  0  0  0  0  0  0  0
   -4.3832   -0.1756   -0.3950 C   0  0  0  0  0  0  0  0  0  0  0  0
   -4.6046   -0.6851   -1.6853 C   0  0  0  0  0  0  0  0  0  0  0  0
   -5.4427   -1.7895   -1.8702 C   0  0  0  0  0  0  0  0  0  0  0  0
   -6.0739   -2.3822   -0.7787 C   0  0  0  0  0  0  0  0  0  0  0  0
   -5.8771   -1.8642    0.5001 C   0  0  0  0  0  0  0  0  0  0  0  0
   -5.0419   -0.7637    0.6861 C   0  0  0  0  0  0  0  0  0  0  0  0
   -4.9674   -0.2443    1.9180 F   0  0  0  0  0  0  0  0  0  0  0  0
    2.8365    0.9693    0.0740 C   0  0  0  0  0  0  0  0  0  0  0  0
    3.1476    2.2567    0.5568 C   0  0  0  0  0  0  0  0  0  0  0  0
    4.3654    2.5198    1.1757 C   0  0  0  0  0  0  0  0  0  0  0  0
    5.2952    1.4998    1.3386 C   0  0  0  0  0  0  0  0  0  0  0  0
    5.0193    0.1998    0.8975 C   0  0  0  0  0  0  0  0  0  0  0  0
    5.9725   -0.8141    1.0915 C   0  0  0  0  0  0  0  0  0  0  0  0
    5.7280   -2.1205    0.6768 C   0  0  0  0  0  0  0  0  0  0  0  0
    4.5223   -2.4306    0.0660 C   0  0  0  0  0  0  0  0  0  0  0  0
    3.5653   -1.4313   -0.1353 C   0  0  0  0  0  0  0  0  0  0  0  0
    3.7813   -0.0892    0.2647 C   0  0  0  0  0  0  0  0  0  0  0  0
    1.5359    2.4063   -1.9643 H   0  0  0  0  0  0  0  0  0  0  0  0
    0.5049    2.6704   -0.5396 H   0  0  0  0  0  0  0  0  0  0  0  0
   -0.0446    1.6230   -1.8402 H   0  0  0  0  0  0  0  0  0  0  0  0
    1.6303   -0.0176   -1.4023 H   0  0  0  0  0  0  0  0  0  0  0  0
    0.5770    0.5586    1.3106 H   0  0  0  0  0  0  0  0  0  0  0  0
   -2.1406   -1.7672    0.8130 H   0  0  0  0  0  0  0  0  0  0  0  0
   -0.7417   -1.6918    1.8822 H   0  0  0  0  0  0  0  0  0  0  0  0
   -3.8834    2.0126   -2.0782 H   0  0  0  0  0  0  0  0  0  0  0  0
   -4.1028   -0.2730   -2.5585 H   0  0  0  0  0  0  0  0  0  0  0  0
   -5.5969   -2.1933   -2.8700 H   0  0  0  0  0  0  0  0  0  0  0  0
   -6.7261   -3.2398   -0.9262 H   0  0  0  0  0  0  0  0  0  0  0  0
   -6.3852   -2.2993    1.3553 H   0  0  0  0  0  0  0  0  0  0  0  0
    2.4448    3.0813    0.4576 H   0  0  0  0  0  0  0  0  0  0  0  0
    4.5915    3.5229    1.5304 H   0  0  0  0  0  0  0  0  0  0  0  0
    6.2414    1.7296    1.8240 H   0  0  0  0  0  0  0  0  0  0  0  0
    6.9225   -0.5906    1.5720 H   0  0  0  0  0  0  0  0  0  0  0  0
    6.4778   -2.8917    0.8321 H   0  0  0  0  0  0  0  0  0  0  0  0
    4.3222   -3.4487   -0.2619 H   0  0  0  0  0  0  0  0  0  0  0  0
    2.6342   -1.7291   -0.6106 H   0  0  0  0  0  0  0  0  0  0  0  0
  1  2  1  0
  2  3  1  0
  3  4  1  0
  4  5  2  0
  4  6  1  0
  6  7  1  0
  7  8  1  0
  8  9  2  0
  9 10  1  0
 10 11  2  0
 11 12  1  0
 12 13  1  0
 13 14  2  0
 14 15  1  0
 15 16  2  0
 16 17  1  0
 17 18  2  0
 18 19  1  0
  2 20  1  0
 20 21  2  0
 21 22  1  0
 22 23  2  0
 23 24  1  0
 24 25  2  0
 25 26  1  0
 26 27  2  0
 27 28  1  0
 28 29  2  0
 12  8  1  0
 18 13  1  0
 29 20  1  0
 29 24  1  0
  1 30  1  0
  1 31  1  0
  1 32  1  0
  2 33  1  6
  3 34  1  0
  6 35  1  0
  6 36  1  0
 11 37  1  0
 14 38  1  0
 15 39  1  0
 16 40  1  0
 17 41  1  0
 21 42  1  0
 22 43  1  0
 23 44  1  0
 25 45  1  0
 26 46  1  0
 27 47  1  0
 28 48  1  0
M  END
$$$$
Molecule_4
     RDKit          3D

 47 49  0  0  0  0  0  0  0  0999 V2000
    3.0313   -1.5723   -2.2179 C   0  0  0  0  0  0  0  0  0  0  0  0
    3.8985   -0.3386   -2.0119 C   0  0  0  0  0  0  0  0  0  0  0  0
    4.4487   -0.2548   -0.6039 C   0  0  0  0  0  0  0  0  0  0  0  0
    5.7652   -0.7137   -0.3969 C   0  0  0  0  0  0  0  0  0  0  0  0
    6.3480   -0.6803    0.8670 C   0  0  0  0  0  0  0  0  0  0  0  0
    5.6228   -0.1892    1.9438 C   0  0  0  0  0  0  0  0  0  0  0  0
    4.3137    0.2632    1.7595 C   0  0  0  0  0  0  0  0  0  0  0  0
    3.7063    0.2318    0.4978 C   0  0  0  0  0  0  0  0  0  0  0  0
    2.3798    0.6825    0.2913 N   0  0  0  0  0  0  0  0  0  0  0  0
    1.4666    1.1003    1.2425 C   0  0  0  0  0  0  0  0  0  0  0  0
    1.6042    1.0969    2.4588 O   0  0  0  0  0  0  0  0  0  0  0  0
    0.1566    1.5504    0.6911 C   0  0  0  0  0  0  0  0  0  0  0  0
    0.0700    2.2578   -0.5178 C   0  0  0  0  0  0  0  0  0  0  0  0
   -1.1752    2.6561   -1.0115 C   0  0  0  0  0  0  0  0  0  0  0  0
   -2.3372    2.3552   -0.3015 C   0  0  0  0  0  0  0  0  0  0  0  0
   -2.2454    1.6616    0.9090 C   0  0  0  0  0  0  0  0  0  0  0  0
   -3.7171    1.2691    1.8182 S   0  0  0  0  0  0  0  0  0  0  0  0
   -3.4598    1.5775    3.2079 O   0  0  0  0  0  0  0  0  0  0  0  0
   -4.8583    1.8273    1.1256 O   0  0  0  0  0  0  0  0  0  0  0  0
   -3.7739   -0.4200    1.7099 N   0  0  0  0  0  0  0  0  0  0  0  0
   -4.3037   -0.9914    0.5205 C   0  0  0  0  0  0  0  0  0  0  0  0
   -5.6682   -1.2707    0.4336 C   0  0  0  0  0  0  0  0  0  0  0  0
   -6.1984   -1.7866   -0.7503 C   0  0  0  0  0  0  0  0  0  0  0  0
   -5.3646   -2.0136   -1.8461 C   0  0  0  0  0  0  0  0  0  0  0  0
   -4.0043   -1.7217   -1.7525 C   0  0  0  0  0  0  0  0  0  0  0  0
   -2.9764   -1.9918   -3.1063 Cl  0  0  0  0  0  0  0  0  0  0  0  0
   -3.4682   -1.2084   -0.5734 C   0  0  0  0  0  0  0  0  0  0  0  0
   -1.0047    1.2695    1.4192 C   0  0  0  0  0  0  0  0  0  0  0  0
    2.6648   -1.6075   -3.2488 H   0  0  0  0  0  0  0  0  0  0  0  0
    2.1629   -1.5742   -1.5514 H   0  0  0  0  0  0  0  0  0  0  0  0
    3.5994   -2.4895   -2.0289 H   0  0  0  0  0  0  0  0  0  0  0  0
    4.7264   -0.3631   -2.7321 H   0  0  0  0  0  0  0  0  0  0  0  0
    3.3397    0.5718   -2.2566 H   0  0  0  0  0  0  0  0  0  0  0  0
    6.3478   -1.1042   -1.2292 H   0  0  0  0  0  0  0  0  0  0  0  0
    7.3648   -1.0358    1.0104 H   0  0  0  0  0  0  0  0  0  0  0  0
    6.0692   -0.1556    2.9343 H   0  0  0  0  0  0  0  0  0  0  0  0
    3.7931    0.6418    2.6336 H   0  0  0  0  0  0  0  0  0  0  0  0
    2.0370    0.6143   -0.6548 H   0  0  0  0  0  0  0  0  0  0  0  0
    0.9650    2.5347   -1.0699 H   0  0  0  0  0  0  0  0  0  0  0  0
   -1.2394    3.2112   -1.9453 H   0  0  0  0  0  0  0  0  0  0  0  0
   -3.3037    2.6687   -0.6923 H   0  0  0  0  0  0  0  0  0  0  0  0
   -4.0648   -0.8234    2.6008 H   0  0  0  0  0  0  0  0  0  0  0  0
   -6.3290   -1.0732    1.2738 H   0  0  0  0  0  0  0  0  0  0  0  0
   -7.2622   -2.0006   -0.8216 H   0  0  0  0  0  0  0  0  0  0  0  0
   -5.7814   -2.4111   -2.7681 H   0  0  0  0  0  0  0  0  0  0  0  0
   -2.4064   -0.9938   -0.5079 H   0  0  0  0  0  0  0  0  0  0  0  0
   -0.9395    0.7433    2.3704 H   0  0  0  0  0  0  0  0  0  0  0  0
  1  2  1  0
  2  3  1  0
  3  4  2  0
  4  5  1  0
  5  6  2  0
  6  7  1  0
  7  8  2  0
  8  9  1  0
  9 10  1  0
 10 11  2  0
 10 12  1  0
 12 13  2  0
 13 14  1  0
 14 15  2  0
 15 16  1  0
 16 17  1  0
 17 18  2  0
 17 19  2  0
 17 20  1  0
 20 21  1  0
 21 22  2  0
 22 23  1  0
 23 24  2  0
 24 25  1  0
 25 26  1  0
 25 27  2  0
 16 28  2  0
  8  3  1  0
 28 12  1  0
 27 21  1  0
  1 29  1  0
  1 30  1  0
  1 31  1  0
  2 32  1  0
  2 33  1  0
  4 34  1  0
  5 35  1  0
  6 36  1  0
  7 37  1  0
  9 38  1  0
 13 39  1  0
 14 40  1  0
 15 41  1  0
 20 42  1  0
 22 43  1  0
 23 44  1  0
 24 45  1  0
 27 46  1  0
 28 47  1  0
M  END
$$$$
Molecule_5
     RDKit          3D

 48 50  0  0  0  0  0  0  0  0999 V2000
   -5.4306    1.0009   -0.7201 C   0  0  0  0  0  0  0  0  0  0  0  0
   -4.7831   -0.2501   -0.0886 C   0  0  0  0  0  0  0  0  0  0  0  0
   -5.6445   -0.6479    1.1308 C   0  0  0  0  0  0  0  0  0  0  0  0
   -4.8492   -1.4180   -1.0963 C   0  0  0  0  0  0  0  0  0  0  0  0
   -3.3217    0.0471    0.2615 C   0  0  0  0  0  0  0  0  0  0  0  0
   -2.4072    0.4123   -0.7233 C   0  0  0  0  0  0  0  0  0  0  0  0
   -1.0984    0.6928   -0.5088 N   0  0  0  0  0  0  0  0  0  0  0  0
   -0.6074    0.6136    0.7475 C   0  0  0  0  0  0  0  0  0  0  0  0
    0.7508    0.9033    0.9528 N   0  0  0  0  0  0  0  0  0  0  0  0
    1.5852   -0.2949    1.2370 C   0  0  0  0  0  0  0  0  0  0  0  0
    2.0049   -1.0444   -0.0519 C   0  0  0  0  0  0  0  0  0  0  0  0
    2.7034   -0.1347   -0.9952 N   0  0  0  0  0  0  0  0  0  0  0  0
    4.0815    0.0161   -0.8366 C   0  0  0  0  0  0  0  0  0  0  0  0
    4.9161   -1.1044   -0.7195 C   0  0  0  0  0  0  0  0  0  0  0  0
    6.3001   -0.9734   -0.5782 C   0  0  0  0  0  0  0  0  0  0  0  0
    6.8327    0.2994   -0.5694 C   0  0  0  0  0  0  0  0  0  0  0  0
    8.1727    0.5066   -0.4357 O   0  0  0  0  0  0  0  0  0  0  0  0
    6.1005    1.4110   -0.6983 N   0  0  0  0  0  0  0  0  0  0  0  0
    4.7600    1.2402   -0.8382 C   0  0  0  0  0  0  0  0  0  0  0  0
    1.8528    1.0338   -1.3369 C   0  0  0  0  0  0  0  0  0  0  0  0
    1.3616    1.7873   -0.0748 C   0  0  0  0  0  0  0  0  0  0  0  0
   -1.4523    0.2755    1.8112 C   0  0  0  0  0  0  0  0  0  0  0  0
   -0.9896    0.2463    3.1664 C   0  0  0  0  0  0  0  0  0  0  0  0
   -0.6531    0.1804    4.2762 N   0  0  0  0  0  0  0  0  0  0  0  0
   -2.8054   -0.0112    1.5587 C   0  0  0  0  0  0  0  0  0  0  0  0
   -4.9410    1.2920   -1.6561 H   0  0  0  0  0  0  0  0  0  0  0  0
   -6.4876    0.8249   -0.9517 H   0  0  0  0  0  0  0  0  0  0  0  0
   -5.3765    1.8593   -0.0400 H   0  0  0  0  0  0  0  0  0  0  0  0
   -5.2606   -1.5518    1.6180 H   0  0  0  0  0  0  0  0  0  0  0  0
   -6.6791   -0.8562    0.8328 H   0  0  0  0  0  0  0  0  0  0  0  0
   -5.6801    0.1532    1.8783 H   0  0  0  0  0  0  0  0  0  0  0  0
   -4.3707   -2.3172   -0.6902 H   0  0  0  0  0  0  0  0  0  0  0  0
   -4.3495   -1.1780   -2.0413 H   0  0  0  0  0  0  0  0  0  0  0  0
   -5.8876   -1.6731   -1.3384 H   0  0  0  0  0  0  0  0  0  0  0  0
   -2.7018    0.4985   -1.7669 H   0  0  0  0  0  0  0  0  0  0  0  0
    1.0799   -0.9966    1.9097 H   0  0  0  0  0  0  0  0  0  0  0  0
    2.4848    0.0447    1.7655 H   0  0  0  0  0  0  0  0  0  0  0  0
    2.6028   -1.9203    0.2180 H   0  0  0  0  0  0  0  0  0  0  0  0
    1.1111   -1.4353   -0.5546 H   0  0  0  0  0  0  0  0  0  0  0  0
    4.5018   -2.1070   -0.7756 H   0  0  0  0  0  0  0  0  0  0  0  0
    6.9222   -1.8552   -0.4929 H   0  0  0  0  0  0  0  0  0  0  0  0
    8.6025   -0.3567   -0.3623 H   0  0  0  0  0  0  0  0  0  0  0  0
    4.2351    2.1833   -0.9429 H   0  0  0  0  0  0  0  0  0  0  0  0
    2.3639    1.7208   -2.0211 H   0  0  0  0  0  0  0  0  0  0  0  0
    0.9949    0.6575   -1.9054 H   0  0  0  0  0  0  0  0  0  0  0  0
    0.6771    2.5972   -0.3575 H   0  0  0  0  0  0  0  0  0  0  0  0
    2.2191    2.2788    0.4005 H   0  0  0  0  0  0  0  0  0  0  0  0
   -3.4406   -0.2692    2.4033 H   0  0  0  0  0  0  0  0  0  0  0  0
  1  2  1  0
  2  3  1  0
  2  4  1  0
  2  5  1  0
  5  6  2  0
  6  7  1  0
  7  8  2  0
  8  9  1  0
  9 10  1  0
 10 11  1  0
 11 12  1  0
 12 13  1  0
 13 14  2  0
 14 15  1  0
 15 16  2  0
 16 17  1  0
 16 18  1  0
 18 19  2  0
 12 20  1  0
 20 21  1  0
  8 22  1  0
 22 23  1  0
 23 24  3  0
 22 25  2  0
 25  5  1  0
 21  9  1  0
 19 13  1  0
  1 26  1  0
  1 27  1  0
  1 28  1  0
  3 29  1  0
  3 30  1  0
  3 31  1  0
  4 32  1  0
  4 33  1  0
  4 34  1  0
  6 35  1  0
 10 36  1  0
 10 37  1  0
 11 38  1  0
 11 39  1  0
 14 40  1  0
 15 41  1  0
 17 42  1  0
 19 43  1  0
 20 44  1  0
 20 45  1  0
 21 46  1  0
 21 47  1  0
 25 48  1  0
M  END
$$$$
Molecule_6
     RDKit          3D

 48 51  0  0  0  0  0  0  0  0999 V2000
    4.4064   -1.1834   -0.5271 O   0  0  0  0  0  0  0  0  0  0  0  0
    3.4005   -0.6344   -0.0861 C   0  0  0  0  0  0  0  0  0  0  0  0
    3.4335    0.8374    0.0534 C   0  0  0  0  0  0  0  0  0  0  0  0
    3.2504    1.4392    1.3038 C   0  0  0  0  0  0  0  0  0  0  0  0
    3.3055    2.8284    1.4162 C   0  0  0  0  0  0  0  0  0  0  0  0
    3.5605    3.6079    0.2855 C   0  0  0  0  0  0  0  0  0  0  0  0
    3.7701    2.9962   -0.9520 C   0  0  0  0  0  0  0  0  0  0  0  0
    4.0993    3.9642   -2.3361 Cl  0  0  0  0  0  0  0  0  0  0  0  0
    3.7158    1.6110   -1.0756 C   0  0  0  0  0  0  0  0  0  0  0  0
    2.2338   -1.3249    0.2746 N   0  0  0  0  0  0  0  0  0  0  0  0
    2.2571   -2.7706    0.1033 C   0  0  0  0  0  0  0  0  0  0  0  0
    1.3127   -3.5191    1.0296 C   0  0  0  0  0  0  0  0  0  0  0  0
    0.1300   -2.6856    1.4788 C   0  0  0  0  0  0  0  0  0  0  0  0
   -0.9169   -3.5163    1.7246 F   0  0  0  0  0  0  0  0  0  0  0  0
    0.4306   -2.1133    2.6801 F   0  0  0  0  0  0  0  0  0  0  0  0
   -0.2742   -1.5916    0.5143 C   0  0  1  0  0  0  0  0  0  0  0  0
   -0.8183   -2.1050   -0.8289 C   0  0  0  0  0  0  0  0  0  0  0  0
   -1.6803   -0.9532   -1.3526 C   0  0  0  0  0  0  0  0  0  0  0  0
   -2.0790   -0.2261   -0.1490 N   0  0  0  0  0  0  0  0  0  0  0  0
   -3.1175    0.6796   -0.1305 C   0  0  0  0  0  0  0  0  0  0  0  0
   -3.6910    1.1329    1.0714 C   0  0  0  0  0  0  0  0  0  0  0  0
   -4.7424    2.0609    1.0959 C   0  0  0  0  0  0  0  0  0  0  0  0
   -5.2458    2.5683   -0.0937 C   0  0  0  0  0  0  0  0  0  0  0  0
   -4.6896    2.1433   -1.2890 C   0  0  0  0  0  0  0  0  0  0  0  0
   -5.1625    2.6297   -2.4447 F   0  0  0  0  0  0  0  0  0  0  0  0
   -3.6443    1.2201   -1.3130 C   0  0  0  0  0  0  0  0  0  0  0  0
   -1.4881   -0.8180    1.0516 C   0  0  0  0  0  0  0  0  0  0  0  0
    0.9287   -0.6478    0.3436 C   0  0  0  0  0  0  0  0  0  0  0  0
    3.0762    0.8299    2.1878 H   0  0  0  0  0  0  0  0  0  0  0  0
    3.1598    3.3042    2.3833 H   0  0  0  0  0  0  0  0  0  0  0  0
    3.6051    4.6903    0.3764 H   0  0  0  0  0  0  0  0  0  0  0  0
    3.8942    1.1321   -2.0348 H   0  0  0  0  0  0  0  0  0  0  0  0
    2.0059   -2.9729   -0.9443 H   0  0  0  0  0  0  0  0  0  0  0  0
    3.2740   -3.1548    0.2459 H   0  0  0  0  0  0  0  0  0  0  0  0
    1.8663   -3.8415    1.9199 H   0  0  0  0  0  0  0  0  0  0  0  0
    0.9749   -4.4358    0.5321 H   0  0  0  0  0  0  0  0  0  0  0  0
   -1.4531   -2.9863   -0.6722 H   0  0  0  0  0  0  0  0  0  0  0  0
   -0.0494   -2.3795   -1.5553 H   0  0  0  0  0  0  0  0  0  0  0  0
   -1.0959   -0.3013   -2.0119 H   0  0  0  0  0  0  0  0  0  0  0  0
   -2.5366   -1.3514   -1.9086 H   0  0  0  0  0  0  0  0  0  0  0  0
   -3.3345    0.7626    2.0288 H   0  0  0  0  0  0  0  0  0  0  0  0
   -5.1609    2.3802    2.0466 H   0  0  0  0  0  0  0  0  0  0  0  0
   -6.0587    3.2860   -0.0982 H   0  0  0  0  0  0  0  0  0  0  0  0
   -3.2490    0.9446   -2.2846 H   0  0  0  0  0  0  0  0  0  0  0  0
   -1.1917   -0.0579    1.7832 H   0  0  0  0  0  0  0  0  0  0  0  0
   -2.2181   -1.4889    1.5209 H   0  0  0  0  0  0  0  0  0  0  0  0
    0.8261   -0.0208   -0.5499 H   0  0  0  0  0  0  0  0  0  0  0  0
    0.9802    0.0316    1.2016 H   0  0  0  0  0  0  0  0  0  0  0  0
  1  2  2  0
  2  3  1  0
  3  4  2  0
  4  5  1  0
  5  6  2  0
  6  7  1  0
  7  8  1  0
  7  9  2  0
  2 10  1  0
 10 11  1  0
 11 12  1  0
 12 13  1  0
 13 14  1  0
 13 15  1  0
 16 13  1  1
 16 17  1  0
 17 18  1  0
 18 19  1  0
 19 20  1  0
 20 21  2  0
 21 22  1  0
 22 23  2  0
 23 24  1  0
 24 25  1  0
 24 26  2  0
 19 27  1  0
 16 28  1  0
  9  3  1  0
 28 10  1  0
 27 16  1  0
 26 20  1  0
  4 29  1  0
  5 30  1  0
  6 31  1  0
  9 32  1  0
 11 33  1  0
 11 34  1  0
 12 35  1  0
 12 36  1  0
 17 37  1  0
 17 38  1  0
 18 39  1  0
 18 40  1  0
 21 41  1  0
 22 42  1  0
 23 43  1  0
 26 44  1  0
 27 45  1  0
 27 46  1  0
 28 47  1  0
 28 48  1  0
M  END
$$$$
Molecule_7
     RDKit          3D

 55 57  0  0  0  0  0  0  0  0999 V2000
    1.3845    0.8859   -1.4641 C   0  0  0  0  0  0  0  0  0  0  0  0
    1.4011    1.8185   -0.2645 C   0  0  0  0  0  0  0  0  0  0  0  0
    1.0522    1.1548    0.9747 N   0  0  0  0  0  0  0  0  0  0  0  0
    1.9196    0.7153    1.9527 C   0  0  0  0  0  0  0  0  0  0  0  0
    3.4026    0.8528    1.9210 C   0  0  0  0  0  0  0  0  0  0  0  0
    3.8720    0.1537    0.7703 O   0  0  0  0  0  0  0  0  0  0  0  0
    5.2279    0.1245    0.5583 C   0  0  0  0  0  0  0  0  0  0  0  0
    6.1584    0.8416    1.3169 C   0  0  0  0  0  0  0  0  0  0  0  0
    7.5165    0.7798    1.0098 C   0  0  0  0  0  0  0  0  0  0  0  0
    7.9556    0.0130   -0.0647 C   0  0  0  0  0  0  0  0  0  0  0  0
    7.0441   -0.7105   -0.8460 C   0  0  0  0  0  0  0  0  0  0  0  0
    7.5687   -1.5232   -1.9994 C   0  0  0  0  0  0  0  0  0  0  0  0
    5.6689   -0.6814   -0.5154 C   0  0  0  0  0  0  0  0  0  0  0  0
    4.6694   -1.4614   -1.3335 C   0  0  0  0  0  0  0  0  0  0  0  0
    1.2161    0.1967    2.9425 N   0  0  0  0  0  0  0  0  0  0  0  0
   -0.1137    0.2977    2.6247 N   0  0  0  0  0  0  0  0  0  0  0  0
   -0.2007    0.8764    1.4514 C   0  0  0  0  0  0  0  0  0  0  0  0
   -1.6651    1.2292    0.6063 S   0  0  0  0  0  0  0  0  0  0  0  0
   -2.8670    1.0401    1.9564 C   0  0  0  0  0  0  0  0  0  0  0  0
   -4.2721    1.1432    1.3870 C   0  0  0  0  0  0  0  0  0  0  0  0
   -4.8837    2.2073    1.4041 O   0  0  0  0  0  0  0  0  0  0  0  0
   -4.7279   -0.0631    0.8735 N   0  0  0  0  0  0  0  0  0  0  0  0
   -5.9793   -0.3313    0.2826 C   0  0  0  0  0  0  0  0  0  0  0  0
   -6.9944    0.6135    0.1369 C   0  0  0  0  0  0  0  0  0  0  0  0
   -8.2102    0.2634   -0.4627 C   0  0  0  0  0  0  0  0  0  0  0  0
   -8.4350   -1.0408   -0.9154 C   0  0  0  0  0  0  0  0  0  0  0  0
   -9.7262   -1.4000   -1.5872 C   0  0  0  0  0  0  0  0  0  0  0  0
   -7.4139   -1.9851   -0.7816 C   0  0  0  0  0  0  0  0  0  0  0  0
   -6.1993   -1.6336   -0.1836 C   0  0  0  0  0  0  0  0  0  0  0  0
    0.3834    0.4840   -1.6482 H   0  0  0  0  0  0  0  0  0  0  0  0
    1.7025    1.4221   -2.3638 H   0  0  0  0  0  0  0  0  0  0  0  0
    2.0569    0.0362   -1.3166 H   0  0  0  0  0  0  0  0  0  0  0  0
    2.3940    2.2643   -0.1511 H   0  0  0  0  0  0  0  0  0  0  0  0
    0.7052    2.6513   -0.4124 H   0  0  0  0  0  0  0  0  0  0  0  0
    3.8250    0.4110    2.8314 H   0  0  0  0  0  0  0  0  0  0  0  0
    3.6619    1.9164    1.8670 H   0  0  0  0  0  0  0  0  0  0  0  0
    5.8663    1.4632    2.1563 H   0  0  0  0  0  0  0  0  0  0  0  0
    8.2349    1.3365    1.6066 H   0  0  0  0  0  0  0  0  0  0  0  0
    9.0195   -0.0149   -0.2918 H   0  0  0  0  0  0  0  0  0  0  0  0
    7.5242   -2.5904   -1.7601 H   0  0  0  0  0  0  0  0  0  0  0  0
    6.9888   -1.3246   -2.9065 H   0  0  0  0  0  0  0  0  0  0  0  0
    8.6104   -1.2705   -2.2258 H   0  0  0  0  0  0  0  0  0  0  0  0
    3.7973   -1.7529   -0.7389 H   0  0  0  0  0  0  0  0  0  0  0  0
    5.0969   -2.3974   -1.7062 H   0  0  0  0  0  0  0  0  0  0  0  0
    4.3354   -0.8589   -2.1836 H   0  0  0  0  0  0  0  0  0  0  0  0
   -2.7278    1.8294    2.7022 H   0  0  0  0  0  0  0  0  0  0  0  0
   -2.7493    0.0734    2.4574 H   0  0  0  0  0  0  0  0  0  0  0  0
   -4.0759   -0.8382    0.8952 H   0  0  0  0  0  0  0  0  0  0  0  0
   -6.8750    1.6379    0.4754 H   0  0  0  0  0  0  0  0  0  0  0  0
   -8.9810    1.0238   -0.5707 H   0  0  0  0  0  0  0  0  0  0  0  0
   -9.6623   -1.1868   -2.6589 H   0  0  0  0  0  0  0  0  0  0  0  0
  -10.5586   -0.8304   -1.1607 H   0  0  0  0  0  0  0  0  0  0  0  0
   -9.9564   -2.4630   -1.4510 H   0  0  0  0  0  0  0  0  0  0  0  0
   -7.5556   -3.0020   -1.1412 H   0  0  0  0  0  0  0  0  0  0  0  0
   -5.4302   -2.3964   -0.0904 H   0  0  0  0  0  0  0  0  0  0  0  0
  1  2  1  0
  2  3  1  0
  3  4  1  0
  4  5  1  0
  5  6  1  0
  6  7  1  0
  7  8  2  0
  8  9  1  0
  9 10  2  0
 10 11  1  0
 11 12  1  0
 11 13  2  0
 13 14  1  0
  4 15  2  0
 15 16  1  0
 16 17  2  0
 17 18  1  0
 18 19  1  0
 19 20  1  0
 20 21  2  0
 20 22  1  0
 22 23  1  0
 23 24  2  0
 24 25  1  0
 25 26  2  0
 26 27  1  0
 26 28  1  0
 28 29  2  0
 17  3  1  0
 29 23  1  0
 13  7  1  0
  1 30  1  0
  1 31  1  0
  1 32  1  0
  2 33  1  0
  2 34  1  0
  5 35  1  0
  5 36  1  0
  8 37  1  0
  9 38  1  0
 10 39  1  0
 12 40  1  0
 12 41  1  0
 12 42  1  0
 14 43  1  0
 14 44  1  0
 14 45  1  0
 19 46  1  0
 19 47  1  0
 22 48  1  0
 24 49  1  0
 25 50  1  0
 27 51  1  0
 27 52  1  0
 27 53  1  0
 28 54  1  0
 29 55  1  0
M  END
$$$$
Molecule_8
     RDKit          3D

 47 50  0  0  0  0  0  0  0  0999 V2000
   -8.5927    1.7954    0.9235 C   0  0  0  0  0  0  0  0  0  0  0  0
   -7.9098    1.8740   -0.4330 C   0  0  0  0  0  0  0  0  0  0  0  0
   -6.6428    1.0581   -0.4691 C   0  0  0  0  0  0  0  0  0  0  0  0
   -5.4255    1.6188   -0.0704 C   0  0  0  0  0  0  0  0  0  0  0  0
   -4.2552    0.8542   -0.0817 C   0  0  0  0  0  0  0  0  0  0  0  0
   -4.2743   -0.4888   -0.4822 C   0  0  0  0  0  0  0  0  0  0  0  0
   -3.0307   -1.2575   -0.4705 C   0  0  0  0  0  0  0  0  0  0  0  0
   -2.9552   -2.6369   -0.4883 C   0  0  0  0  0  0  0  0  0  0  0  0
   -1.3139   -3.1341   -0.4549 S   0  0  0  0  0  0  0  0  0  0  0  0
   -0.8304   -1.5054   -0.3927 C   0  0  0  0  0  0  0  0  0  0  0  0
    0.4799   -1.1073   -0.3432 N   0  0  0  0  0  0  0  0  0  0  0  0
    1.5955   -1.9059   -0.2170 C   0  0  0  0  0  0  0  0  0  0  0  0
    1.6119   -3.1320   -0.1329 O   0  0  0  0  0  0  0  0  0  0  0  0
    2.9200   -1.1334   -0.2339 C   0  0  1  0  0  0  0  0  0  0  0  0
    3.1522   -0.5038   -1.6035 C   0  0  0  0  0  0  0  0  0  0  0  0
    2.9078    0.1300    1.0855 S   0  0  0  0  0  0  0  0  0  0  0  0
    4.6047    0.4377    1.2873 C   0  0  0  0  0  0  0  0  0  0  0  0
    5.0812    1.4002    2.0479 N   0  0  0  0  0  0  0  0  0  0  0  0
    6.4563    1.3324    1.9585 N   0  0  0  0  0  0  0  0  0  0  0  0
    6.7270    0.3314    1.1478 C   0  0  0  0  0  0  0  0  0  0  0  0
    8.1632   -0.1148    0.7515 C   0  0  0  0  0  0  0  0  0  0  0  0
    9.3604    0.6426    1.2648 C   0  0  0  0  0  0  0  0  0  0  0  0
    8.9638    0.7600   -0.1790 C   0  0  0  0  0  0  0  0  0  0  0  0
    5.5970   -0.2842    0.6792 O   0  0  0  0  0  0  0  0  0  0  0  0
   -1.7968   -0.6188   -0.4121 N   0  0  0  0  0  0  0  0  0  0  0  0
   -5.4967   -1.0452   -0.8837 C   0  0  0  0  0  0  0  0  0  0  0  0
   -6.6691   -0.2807   -0.8733 C   0  0  0  0  0  0  0  0  0  0  0  0
   -7.9400    2.1702    1.7181 H   0  0  0  0  0  0  0  0  0  0  0  0
   -8.8675    0.7644    1.1707 H   0  0  0  0  0  0  0  0  0  0  0  0
   -9.5049    2.3992    0.9226 H   0  0  0  0  0  0  0  0  0  0  0  0
   -7.6816    2.9193   -0.6736 H   0  0  0  0  0  0  0  0  0  0  0  0
   -8.5965    1.5264   -1.2138 H   0  0  0  0  0  0  0  0  0  0  0  0
   -5.3776    2.6552    0.2561 H   0  0  0  0  0  0  0  0  0  0  0  0
   -3.3225    1.3175    0.2342 H   0  0  0  0  0  0  0  0  0  0  0  0
   -3.7468   -3.3711   -0.5110 H   0  0  0  0  0  0  0  0  0  0  0  0
    0.5825   -0.1026   -0.2865 H   0  0  0  0  0  0  0  0  0  0  0  0
    3.7103   -1.8630   -0.0242 H   0  0  0  0  0  0  0  0  0  0  0  0
    2.4074    0.2645   -1.8389 H   0  0  0  0  0  0  0  0  0  0  0  0
    4.1451   -0.0482   -1.6749 H   0  0  0  0  0  0  0  0  0  0  0  0
    3.0842   -1.2664   -2.3877 H   0  0  0  0  0  0  0  0  0  0  0  0
    8.2716   -1.1887    0.6435 H   0  0  0  0  0  0  0  0  0  0  0  0
   10.2524    0.0767    1.5047 H   0  0  0  0  0  0  0  0  0  0  0  0
    9.1976    1.5004    1.9084 H   0  0  0  0  0  0  0  0  0  0  0  0
    8.5372    1.7007   -0.5067 H   0  0  0  0  0  0  0  0  0  0  0  0
    9.5898    0.2753   -0.9191 H   0  0  0  0  0  0  0  0  0  0  0  0
   -5.5637   -2.0760   -1.2196 H   0  0  0  0  0  0  0  0  0  0  0  0
   -7.6048   -0.7399   -1.1845 H   0  0  0  0  0  0  0  0  0  0  0  0
  1  2  1  0
  2  3  1  0
  3  4  2  0
  4  5  1  0
  5  6  2  0
  6  7  1  0
  7  8  2  0
  8  9  1  0
  9 10  1  0
 10 11  1  0
 11 12  1  0
 12 13  2  0
 12 14  1  0
 14 15  1  0
 14 16  1  0
 16 17  1  0
 17 18  2  0
 18 19  1  0
 19 20  2  0
 20 21  1  0
 21 22  1  0
 22 23  1  0
 20 24  1  0
 10 25  2  0
  6 26  1  0
 26 27  2  0
 27  3  1  0
 25  7  1  0
 24 17  1  0
 23 21  1  0
  1 28  1  0
  1 29  1  0
  1 30  1  0
  2 31  1  0
  2 32  1  0
  4 33  1  0
  5 34  1  0
  8 35  1  0
 11 36  1  0
 14 37  1  1
 15 38  1  0
 15 39  1  0
 15 40  1  0
 21 41  1  0
 22 42  1  0
 22 43  1  0
 23 44  1  0
 23 45  1  0
 26 46  1  0
 27 47  1  0
M  END
$$$$
Molecule_9
     RDKit          3D

 45 47  0  0  0  0  0  0  0  0999 V2000
   -0.7879    1.4876   -1.1564 C   0  0  0  0  0  0  0  0  0  0  0  0
   -0.9663    0.1167   -0.5634 C   0  0  0  0  0  0  0  0  0  0  0  0
   -2.1757   -0.0852    0.0056 N   0  0  0  0  0  0  0  0  0  0  0  0
   -2.3971   -1.2908    0.5425 C   0  0  0  0  0  0  0  0  0  0  0  0
   -3.6309   -1.5921    1.1059 O   0  0  0  0  0  0  0  0  0  0  0  0
   -4.5495   -0.5747    1.1190 C   0  0  0  0  0  0  0  0  0  0  0  0
   -5.5704   -0.5713    0.1671 C   0  0  0  0  0  0  0  0  0  0  0  0
   -6.5257    0.4487    0.1823 C   0  0  0  0  0  0  0  0  0  0  0  0
   -6.4611    1.4544    1.1498 C   0  0  0  0  0  0  0  0  0  0  0  0
   -5.4574    1.4293    2.1209 C   0  0  0  0  0  0  0  0  0  0  0  0
   -4.5117    0.4089    2.1066 C   0  0  0  0  0  0  0  0  0  0  0  0
   -3.5618    0.3862    3.0535 F   0  0  0  0  0  0  0  0  0  0  0  0
   -1.5092   -2.2899    0.5599 N   0  0  0  0  0  0  0  0  0  0  0  0
   -0.2922   -2.0699   -0.0060 C   0  0  0  0  0  0  0  0  0  0  0  0
    0.6537   -3.2130    0.2033 C   0  0  0  0  0  0  0  0  0  0  0  0
    0.0314   -0.8670   -0.6363 C   0  0  0  0  0  0  0  0  0  0  0  0
    1.2524   -0.5355   -1.2762 N   0  0  0  0  0  0  0  0  0  0  0  0
    2.1850   -1.3605   -1.8715 C   0  0  0  0  0  0  0  0  0  0  0  0
    2.0914   -2.5700   -2.0375 O   0  0  0  0  0  0  0  0  0  0  0  0
    3.4013   -0.5936   -2.4133 C   0  0  0  0  0  0  0  0  0  0  0  0
    3.4655    0.7777   -2.0323 O   0  0  0  0  0  0  0  0  0  0  0  0
    4.0250    1.0842   -0.8222 C   0  0  0  0  0  0  0  0  0  0  0  0
    4.2170    2.4529   -0.6030 C   0  0  0  0  0  0  0  0  0  0  0  0
    4.7542    2.9137    0.6012 C   0  0  0  0  0  0  0  0  0  0  0  0
    5.0987    2.0003    1.5926 C   0  0  0  0  0  0  0  0  0  0  0  0
    5.7565    2.5617    3.0809 Cl  0  0  0  0  0  0  0  0  0  0  0  0
    4.9092    0.6341    1.3858 C   0  0  0  0  0  0  0  0  0  0  0  0
    4.3700    0.1749    0.1793 C   0  0  0  0  0  0  0  0  0  0  0  0
   -0.6306    1.4134   -2.2375 H   0  0  0  0  0  0  0  0  0  0  0  0
    0.0591    2.0015   -0.6911 H   0  0  0  0  0  0  0  0  0  0  0  0
   -1.6792    2.1024   -0.9923 H   0  0  0  0  0  0  0  0  0  0  0  0
   -5.6067   -1.3473   -0.5939 H   0  0  0  0  0  0  0  0  0  0  0  0
   -7.3118    0.4654   -0.5699 H   0  0  0  0  0  0  0  0  0  0  0  0
   -7.1977    2.2526    1.1526 H   0  0  0  0  0  0  0  0  0  0  0  0
   -5.4022    2.1973    2.8855 H   0  0  0  0  0  0  0  0  0  0  0  0
    0.3365   -3.8145    1.0655 H   0  0  0  0  0  0  0  0  0  0  0  0
    1.6640   -2.8629    0.4333 H   0  0  0  0  0  0  0  0  0  0  0  0
    0.6527   -3.8741   -0.6666 H   0  0  0  0  0  0  0  0  0  0  0  0
    1.4159    0.4490   -1.4639 H   0  0  0  0  0  0  0  0  0  0  0  0
    4.3267   -1.1276   -2.1664 H   0  0  0  0  0  0  0  0  0  0  0  0
    3.3094   -0.6086   -3.5062 H   0  0  0  0  0  0  0  0  0  0  0  0
    3.9489    3.1694   -1.3759 H   0  0  0  0  0  0  0  0  0  0  0  0
    4.9004    3.9802    0.7566 H   0  0  0  0  0  0  0  0  0  0  0  0
    5.1746   -0.0793    2.1620 H   0  0  0  0  0  0  0  0  0  0  0  0
    4.2259   -0.8943    0.0704 H   0  0  0  0  0  0  0  0  0  0  0  0
  1  2  1  0
  2  3  2  0
  3  4  1  0
  4  5  1  0
  5  6  1  0
  6  7  2  0
  7  8  1  0
  8  9  2  0
  9 10  1  0
 10 11  2  0
 11 12  1  0
  4 13  2  0
 13 14  1  0
 14 15  1  0
 14 16  2  0
 16 17  1  0
 17 18  1  0
 18 19  2  0
 18 20  1  0
 20 21  1  0
 21 22  1  0
 22 23  2  0
 23 24  1  0
 24 25  2  0
 25 26  1  0
 25 27  1  0
 27 28  2  0
 16  2  1  0
 28 22  1  0
 11  6  1  0
  1 29  1  0
  1 30  1  0
  1 31  1  0
  7 32  1  0
  8 33  1  0
  9 34  1  0
 10 35  1  0
 15 36  1  0
 15 37  1  0
 15 38  1  0
 17 39  1  0
 20 40  1  0
 20 41  1  0
 23 42  1  0
 24 43  1  0
 27 44  1  0
 28 45  1  0
M  END
$$$$
