Molecule_0
     RDKit          3D

 80 84  0  0  0  0  0  0  0  0999 V2000
   -2.3213   -2.1103    2.7278 C   0  0  0  0  0  0  0  0  0  0  0  0
   -1.2767   -2.0457    1.6160 C   0  0  0  0  0  0  0  0  0  0  0  0
   -0.2609   -3.1736    1.7790 C   0  0  0  0  0  0  0  0  0  0  0  0
   -1.8894   -2.2436    0.3269 O   0  0  0  0  0  0  0  0  0  0  0  0
   -2.4143   -1.0843   -0.1924 C   0  0  0  0  0  0  0  0  0  0  0  0
   -3.7934   -0.8976   -0.0785 C   0  0  0  0  0  0  0  0  0  0  0  0
   -4.4158    0.2476   -0.5976 C   0  0  0  0  0  0  0  0  0  0  0  0
   -5.9163    0.4514   -0.4208 C   0  0  0  0  0  0  0  0  0  0  0  0
   -6.2227    1.1805    0.9023 C   0  0  0  0  0  0  0  0  0  0  0  0
   -7.4556    0.6214    1.6179 C   0  0  0  0  0  0  0  0  0  0  0  0
   -8.5938    0.3521    0.7376 N   0  0  0  0  0  0  0  0  0  0  0  0
   -9.2959    1.5722    0.3515 C   0  0  0  0  0  0  0  0  0  0  0  0
   -8.2525   -0.4733   -0.4304 C   0  0  0  0  0  0  0  0  0  0  0  0
   -6.7657   -0.8255   -0.5502 C   0  0  0  0  0  0  0  0  0  0  0  0
   -3.6044    1.2108   -1.2374 C   0  0  0  0  0  0  0  0  0  0  0  0
   -4.1745    2.4761   -1.8265 C   0  0  0  0  0  0  0  0  0  0  0  0
   -2.2157    0.9845   -1.3713 C   0  0  0  0  0  0  0  0  0  0  0  0
   -1.6013   -0.1652   -0.8700 C   0  0  0  0  0  0  0  0  0  0  0  0
   -0.2282   -0.4267   -1.0011 N   0  0  0  0  0  0  0  0  0  0  0  0
    0.8757    0.4261   -0.9219 C   0  0  0  0  0  0  0  0  0  0  0  0
    2.0297   -0.2352   -0.5738 N   0  0  0  0  0  0  0  0  0  0  0  0
    3.1969    0.4322   -0.3551 C   0  0  0  0  0  0  0  0  0  0  0  0
    4.3293   -0.3004    0.0091 N   0  0  0  0  0  0  0  0  0  0  0  0
    5.3116   -0.0382    0.9873 C   0  0  0  0  0  0  0  0  0  0  0  0
    5.1285    0.9405    1.9768 C   0  0  0  0  0  0  0  0  0  0  0  0
    6.1153    1.2073    2.9321 C   0  0  0  0  0  0  0  0  0  0  0  0
    7.3091    0.4946    2.9261 C   0  0  0  0  0  0  0  0  0  0  0  0
    7.5159   -0.4922    1.9669 C   0  0  0  0  0  0  0  0  0  0  0  0
    6.5266   -0.7498    1.0054 C   0  0  0  0  0  0  0  0  0  0  0  0
    6.8219   -2.0507   -0.1781 S   0  0  0  0  0  6  0  0  0  0  0  0
    5.5869   -2.8133   -0.2558 O   0  0  0  0  0  0  0  0  0  0  0  0
    8.0614   -2.7099    0.1936 O   0  0  0  0  0  0  0  0  0  0  0  0
    7.0771   -1.2110   -1.7477 C   0  0  0  0  0  0  0  0  0  0  0  0
    7.2997   -2.2409   -2.8538 C   0  0  0  0  0  0  0  0  0  0  0  0
    8.2446   -0.2330   -1.6898 C   0  0  0  0  0  0  0  0  0  0  0  0
    3.0771    1.7972   -0.5995 C   0  0  0  0  0  0  0  0  0  0  0  0
    4.0371    2.7749   -0.5779 C   0  0  0  0  0  0  0  0  0  0  0  0
    3.3699    3.9255   -0.9007 N   0  0  0  0  0  0  0  0  0  0  0  0
    2.0606    3.7487   -1.1540 N   0  0  0  0  0  0  0  0  0  0  0  0
    1.8768    2.4363   -0.9808 C   0  0  0  0  0  0  0  0  0  0  0  0
    0.7290    1.7543   -1.1378 N   0  0  0  0  0  0  0  0  0  0  0  0
   -1.8487   -2.1573    3.7134 H   0  0  0  0  0  0  0  0  0  0  0  0
   -2.9706   -2.9821    2.6069 H   0  0  0  0  0  0  0  0  0  0  0  0
   -2.9630   -1.2229    2.7108 H   0  0  0  0  0  0  0  0  0  0  0  0
   -0.7380   -1.0904    1.6660 H   0  0  0  0  0  0  0  0  0  0  0  0
   -0.7588   -4.1521    1.7554 H   0  0  0  0  0  0  0  0  0  0  0  0
    0.4599   -3.1644    0.9530 H   0  0  0  0  0  0  0  0  0  0  0  0
    0.2847   -3.0786    2.7201 H   0  0  0  0  0  0  0  0  0  0  0  0
   -4.3674   -1.6592    0.4400 H   0  0  0  0  0  0  0  0  0  0  0  0
   -6.2606    1.0970   -1.2383 H   0  0  0  0  0  0  0  0  0  0  0  0
   -5.3730    1.1231    1.5944 H   0  0  0  0  0  0  0  0  0  0  0  0
   -6.3645    2.2487    0.6955 H   0  0  0  0  0  0  0  0  0  0  0  0
   -7.7472    1.2995    2.4295 H   0  0  0  0  0  0  0  0  0  0  0  0
   -7.1801   -0.3133    2.1232 H   0  0  0  0  0  0  0  0  0  0  0  0
   -8.6792    2.2291   -0.2696 H   0  0  0  0  0  0  0  0  0  0  0  0
  -10.2076    1.3295   -0.2059 H   0  0  0  0  0  0  0  0  0  0  0  0
   -9.6161    2.1338    1.2368 H   0  0  0  0  0  0  0  0  0  0  0  0
   -8.8286   -1.4046   -0.3682 H   0  0  0  0  0  0  0  0  0  0  0  0
   -8.5670    0.0083   -1.3662 H   0  0  0  0  0  0  0  0  0  0  0  0
   -6.5102   -1.5618    0.2221 H   0  0  0  0  0  0  0  0  0  0  0  0
   -6.5797   -1.3107   -1.5175 H   0  0  0  0  0  0  0  0  0  0  0  0
   -4.7958    2.2424   -2.6969 H   0  0  0  0  0  0  0  0  0  0  0  0
   -3.3854    3.1589   -2.1572 H   0  0  0  0  0  0  0  0  0  0  0  0
   -4.7684    3.0145   -1.0806 H   0  0  0  0  0  0  0  0  0  0  0  0
   -1.6168    1.7194   -1.9053 H   0  0  0  0  0  0  0  0  0  0  0  0
    0.0457   -1.3491   -0.6883 H   0  0  0  0  0  0  0  0  0  0  0  0
    4.0988   -1.2997   -0.0326 H   0  0  0  0  0  0  0  0  0  0  0  0
    4.1968    1.4979    2.0419 H   0  0  0  0  0  0  0  0  0  0  0  0
    5.9418    1.9671    3.6917 H   0  0  0  0  0  0  0  0  0  0  0  0
    8.0702    0.6955    3.6761 H   0  0  0  0  0  0  0  0  0  0  0  0
    8.4439   -1.0607    1.9838 H   0  0  0  0  0  0  0  0  0  0  0  0
    6.1549   -0.6646   -1.9709 H   0  0  0  0  0  0  0  0  0  0  0  0
    7.4090   -1.7495   -3.8267 H   0  0  0  0  0  0  0  0  0  0  0  0
    6.4543   -2.9343   -2.9217 H   0  0  0  0  0  0  0  0  0  0  0  0
    8.2026   -2.8339   -2.6701 H   0  0  0  0  0  0  0  0  0  0  0  0
    8.3883    0.2568   -2.6582 H   0  0  0  0  0  0  0  0  0  0  0  0
    8.0713    0.5546   -0.9510 H   0  0  0  0  0  0  0  0  0  0  0  0
    9.1806   -0.7383   -1.4274 H   0  0  0  0  0  0  0  0  0  0  0  0
    5.0955    2.7720   -0.3684 H   0  0  0  0  0  0  0  0  0  0  0  0
    3.7460    4.8656   -0.9722 H   0  0  0  0  0  0  0  0  0  0  0  0
  1  2  1  0
  2  3  1  0
  2  4  1  0
  4  5  1  0
  5  6  2  0
  6  7  1  0
  7  8  1  0
  8  9  1  0
  9 10  1  0
 10 11  1  0
 11 12  1  0
 11 13  1  0
 13 14  1  0
  7 15  2  0
 15 16  1  0
 15 17  1  0
 17 18  2  0
 18 19  1  0
 19 20  1  0
 20 21  1  0
 21 22  2  0
 22 23  1  0
 23 24  1  0
 24 25  2  0
 25 26  1  0
 26 27  2  0
 27 28  1  0
 28 29  2  0
 29 30  1  0
 30 31  2  0
 30 32  2  0
 30 33  1  0
 33 34  1  0
 33 35  1  0
 22 36  1  0
 36 37  2  0
 37 38  1  0
 38 39  1  0
 39 40  2  0
 40 41  1  0
 18  5  1  0
 14  8  1  0
 41 20  2  0
 29 24  1  0
 40 36  1  0
  1 42  1  0
  1 43  1  0
  1 44  1  0
  2 45  1  0
  3 46  1  0
  3 47  1  0
  3 48  1  0
  6 49  1  0
  8 50  1  0
  9 51  1  0
  9 52  1  0
 10 53  1  0
 10 54  1  0
 12 55  1  0
 12 56  1  0
 12 57  1  0
 13 58  1  0
 13 59  1  0
 14 60  1  0
 14 61  1  0
 16 62  1  0
 16 63  1  0
 16 64  1  0
 17 65  1  0
 19 66  1  0
 23 67  1  0
 25 68  1  0
 26 69  1  0
 27 70  1  0
 28 71  1  0
 33 72  1  0
 34 73  1  0
 34 74  1  0
 34 75  1  0
 35 76  1  0
 35 77  1  0
 35 78  1  0
 37 79  1  0
 38 80  1  0
M  END
$$$$
Molecule_1
     RDKit          3D

 81 84  0  0  0  0  0  0  0  0999 V2000
   -2.4646   -2.1585   -2.6420 C   0  0  0  0  0  0  0  0  0  0  0  0
   -2.1596   -1.1196   -1.5950 C   0  0  0  0  0  0  0  0  0  0  0  0
   -0.9224   -1.1989   -0.9246 C   0  0  0  0  0  0  0  0  0  0  0  0
   -0.5435   -0.2679    0.0470 C   0  0  0  0  0  0  0  0  0  0  0  0
    0.6711   -0.3317    0.7482 N   0  0  0  0  0  0  0  0  0  0  0  0
    1.6749   -1.2794    0.8783 C   0  0  0  0  0  0  0  0  0  0  0  0
    1.6024   -2.4716    0.2753 N   0  0  0  0  0  0  0  0  0  0  0  0
    2.6105   -3.3357    0.5068 C   0  0  0  0  0  0  0  0  0  0  0  0
    3.6914   -3.0689    1.3157 C   0  0  0  0  0  0  0  0  0  0  0  0
    4.8644   -4.3011    1.5501 Cl  0  0  0  0  0  0  0  0  0  0  0  0
    3.7050   -1.8055    1.8852 C   0  0  0  0  0  0  0  0  0  0  0  0
    4.7013   -1.3111    2.7617 N   0  0  0  0  0  0  0  0  0  0  0  0
    6.0931   -1.5367    2.6569 C   0  0  0  0  0  0  0  0  0  0  0  0
    6.6828   -2.3418    3.6469 C   0  0  0  0  0  0  0  0  0  0  0  0
    8.0333   -2.6858    3.5908 C   0  0  0  0  0  0  0  0  0  0  0  0
    8.8187   -2.2356    2.5356 C   0  0  0  0  0  0  0  0  0  0  0  0
    8.2620   -1.4174    1.5518 C   0  0  0  0  0  0  0  0  0  0  0  0
    6.9119   -1.0424    1.6263 C   0  0  0  0  0  0  0  0  0  0  0  0
    6.2423    0.0957    0.4321 S   0  0  0  0  0  0  0  0  0  0  0  0
    5.7843   -0.7266   -0.6730 O   0  0  0  0  0  0  0  0  0  0  0  0
    5.3279    0.9645    1.1563 O   0  0  0  0  0  0  0  0  0  0  0  0
    7.5756    1.1406   -0.1639 C   0  0  0  0  0  0  0  0  0  0  0  0
    8.1810    1.9925    0.9481 C   0  0  0  0  0  0  0  0  0  0  0  0
    7.0609    2.0420   -1.2873 C   0  0  0  0  0  0  0  0  0  0  0  0
    2.6921   -0.9312    1.6843 N   0  0  0  0  0  0  0  0  0  0  0  0
   -1.4486    0.7631    0.3668 C   0  0  0  0  0  0  0  0  0  0  0  0
   -1.0071    1.6541    1.3170 O   0  0  0  0  0  0  0  0  0  0  0  0
   -1.9795    2.3890    2.0681 C   0  0  0  0  0  0  0  0  0  0  0  0
   -1.4530    2.4753    3.4989 C   0  0  0  0  0  0  0  0  0  0  0  0
   -2.1233    3.7893    1.4826 C   0  0  0  0  0  0  0  0  0  0  0  0
   -2.6780    0.8545   -0.2934 C   0  0  0  0  0  0  0  0  0  0  0  0
   -3.0525   -0.0728   -1.2859 C   0  0  0  0  0  0  0  0  0  0  0  0
   -4.4088    0.0632   -1.9708 C   0  0  0  0  0  0  0  0  0  0  0  0
   -5.5552   -0.2843   -1.0122 C   0  0  0  0  0  0  0  0  0  0  0  0
   -6.9141   -0.1381   -1.7007 C   0  0  0  0  0  0  0  0  0  0  0  0
   -7.0967    1.2130   -2.2532 N   0  0  0  0  0  0  0  0  0  0  0  0
   -8.4163    1.3663   -2.9018 C   0  0  0  0  0  0  0  0  0  0  0  0
   -9.6110    1.3043   -1.9396 C   0  0  0  0  0  0  0  0  0  0  0  0
  -10.8136    1.5772   -2.6565 O   0  0  0  0  0  0  0  0  0  0  0  0
   -6.0349    1.5261   -3.2263 C   0  0  0  0  0  0  0  0  0  0  0  0
   -4.6475    1.4504   -2.5863 C   0  0  0  0  0  0  0  0  0  0  0  0
   -2.5060   -1.6928   -3.6327 H   0  0  0  0  0  0  0  0  0  0  0  0
   -3.4148   -2.6585   -2.4236 H   0  0  0  0  0  0  0  0  0  0  0  0
   -1.6946   -2.9376   -2.6760 H   0  0  0  0  0  0  0  0  0  0  0  0
   -0.2400   -2.0031   -1.1879 H   0  0  0  0  0  0  0  0  0  0  0  0
    0.8558    0.4757    1.3307 H   0  0  0  0  0  0  0  0  0  0  0  0
    2.5068   -4.2935    0.0052 H   0  0  0  0  0  0  0  0  0  0  0  0
    4.4970   -0.3038    2.7708 H   0  0  0  0  0  0  0  0  0  0  0  0
    6.0697   -2.7270    4.4605 H   0  0  0  0  0  0  0  0  0  0  0  0
    8.4618   -3.3224    4.3612 H   0  0  0  0  0  0  0  0  0  0  0  0
    9.8662   -2.5230    2.4794 H   0  0  0  0  0  0  0  0  0  0  0  0
    8.9036   -1.0972    0.7379 H   0  0  0  0  0  0  0  0  0  0  0  0
    8.3380    0.4845   -0.5942 H   0  0  0  0  0  0  0  0  0  0  0  0
    8.5550    1.3833    1.7759 H   0  0  0  0  0  0  0  0  0  0  0  0
    9.0213    2.5821    0.5661 H   0  0  0  0  0  0  0  0  0  0  0  0
    7.4444    2.6908    1.3618 H   0  0  0  0  0  0  0  0  0  0  0  0
    6.6513    1.4486   -2.1119 H   0  0  0  0  0  0  0  0  0  0  0  0
    6.2665    2.7087   -0.9339 H   0  0  0  0  0  0  0  0  0  0  0  0
    7.8698    2.6603   -1.6909 H   0  0  0  0  0  0  0  0  0  0  0  0
   -2.9468    1.8748    2.1080 H   0  0  0  0  0  0  0  0  0  0  0  0
   -1.3195    1.4709    3.9166 H   0  0  0  0  0  0  0  0  0  0  0  0
   -2.1405    3.0325    4.1433 H   0  0  0  0  0  0  0  0  0  0  0  0
   -0.4706    2.9605    3.5280 H   0  0  0  0  0  0  0  0  0  0  0  0
   -1.1557    4.2998    1.4437 H   0  0  0  0  0  0  0  0  0  0  0  0
   -2.4936    3.7522    0.4546 H   0  0  0  0  0  0  0  0  0  0  0  0
   -2.8154    4.3963    2.0748 H   0  0  0  0  0  0  0  0  0  0  0  0
   -3.3640    1.6595   -0.0539 H   0  0  0  0  0  0  0  0  0  0  0  0
   -4.4604   -0.6462   -2.8043 H   0  0  0  0  0  0  0  0  0  0  0  0
   -5.4435   -1.3138   -0.6494 H   0  0  0  0  0  0  0  0  0  0  0  0
   -5.5298    0.3625   -0.1254 H   0  0  0  0  0  0  0  0  0  0  0  0
   -7.6796   -0.3491   -0.9464 H   0  0  0  0  0  0  0  0  0  0  0  0
   -7.0134   -0.8972   -2.4872 H   0  0  0  0  0  0  0  0  0  0  0  0
   -8.5520    0.6263   -3.7011 H   0  0  0  0  0  0  0  0  0  0  0  0
   -8.4614    2.3447   -3.3991 H   0  0  0  0  0  0  0  0  0  0  0  0
   -9.5082    2.0499   -1.1454 H   0  0  0  0  0  0  0  0  0  0  0  0
   -9.7129    0.3132   -1.4894 H   0  0  0  0  0  0  0  0  0  0  0  0
  -11.5391    1.5484   -2.0099 H   0  0  0  0  0  0  0  0  0  0  0  0
   -6.0831    0.8459   -4.0870 H   0  0  0  0  0  0  0  0  0  0  0  0
   -6.1709    2.5448   -3.6102 H   0  0  0  0  0  0  0  0  0  0  0  0
   -4.5661    2.2429   -1.8327 H   0  0  0  0  0  0  0  0  0  0  0  0
   -3.8823    1.6598   -3.3440 H   0  0  0  0  0  0  0  0  0  0  0  0
  1  2  1  0
  2  3  2  0
  3  4  1  0
  4  5  1  0
  5  6  1  0
  6  7  2  0
  7  8  1  0
  8  9  2  0
  9 10  1  0
  9 11  1  0
 11 12  1  0
 12 13  1  0
 13 14  2  0
 14 15  1  0
 15 16  2  0
 16 17  1  0
 17 18  2  0
 18 19  1  0
 19 20  2  0
 19 21  2  0
 19 22  1  0
 22 23  1  0
 22 24  1  0
 11 25  2  0
  4 26  2  0
 26 27  1  0
 27 28  1  0
 28 29  1  0
 28 30  1  0
 26 31  1  0
 31 32  2  0
 32 33  1  0
 33 34  1  0
 34 35  1  0
 35 36  1  0
 36 37  1  0
 37 38  1  0
 38 39  1  0
 36 40  1  0
 40 41  1  0
 32  2  1  0
 41 33  1  0
 25  6  1  0
 18 13  1  0
  1 42  1  0
  1 43  1  0
  1 44  1  0
  3 45  1  0
  5 46  1  0
  8 47  1  0
 12 48  1  0
 14 49  1  0
 15 50  1  0
 16 51  1  0
 17 52  1  0
 22 53  1  0
 23 54  1  0
 23 55  1  0
 23 56  1  0
 24 57  1  0
 24 58  1  0
 24 59  1  0
 28 60  1  0
 29 61  1  0
 29 62  1  0
 29 63  1  0
 30 64  1  0
 30 65  1  0
 30 66  1  0
 31 67  1  0
 33 68  1  0
 34 69  1  0
 34 70  1  0
 35 71  1  0
 35 72  1  0
 37 73  1  0
 37 74  1  0
 38 75  1  0
 38 76  1  0
 39 77  1  0
 40 78  1  0
 40 79  1  0
 41 80  1  0
 41 81  1  0
M  END
$$$$
Molecule_2
     RDKit          3D

 74 77  0  0  0  0  0  0  0  0999 V2000
   -4.3015    3.1676   -0.8102 C   0  0  0  0  0  0  0  0  0  0  0  0
   -3.7506    1.7968   -0.5320 C   0  0  0  0  0  0  0  0  0  0  0  0
   -2.3458    1.6539   -0.6262 C   0  0  0  0  0  0  0  0  0  0  0  0
   -1.7047    0.4299   -0.4404 C   0  0  0  0  0  0  0  0  0  0  0  0
   -0.3231    0.2681   -0.5807 N   0  0  0  0  0  0  0  0  0  0  0  0
    0.7488    1.0895   -0.2590 C   0  0  0  0  0  0  0  0  0  0  0  0
    0.5764    2.3397    0.1940 N   0  0  0  0  0  0  0  0  0  0  0  0
    1.6821    3.0073    0.5824 C   0  0  0  0  0  0  0  0  0  0  0  0
    2.9496    2.4767    0.5442 C   0  0  0  0  0  0  0  0  0  0  0  0
    4.2985    3.3883    1.0918 Cl  0  0  0  0  0  0  0  0  0  0  0  0
    3.0501    1.1951    0.0295 C   0  0  0  0  0  0  0  0  0  0  0  0
    4.3296    0.5629   -0.0448 N   0  0  0  0  0  0  0  0  0  0  0  0
    4.6321   -0.6336   -0.7412 C   0  0  0  0  0  0  0  0  0  0  0  0
    4.0372   -0.8885   -1.9906 C   0  0  0  0  0  0  0  0  0  0  0  0
    4.3246   -2.0469   -2.7243 C   0  0  0  0  0  0  0  0  0  0  0  0
    5.2176   -2.9839   -2.2201 C   0  0  0  0  0  0  0  0  0  0  0  0
    5.8600   -2.7384   -1.0077 C   0  0  0  0  0  0  0  0  0  0  0  0
    5.6060   -1.5495   -0.3017 C   0  0  0  0  0  0  0  0  0  0  0  0
    6.5121   -1.2904    1.2117 S   0  0  0  0  0  0  0  0  0  0  0  0
    5.7220   -0.3854    2.0310 O   0  0  0  0  0  0  0  0  0  0  0  0
    6.8696   -2.5978    1.7332 O   0  0  0  0  0  0  0  0  0  0  0  0
    8.0224   -0.4453    0.7478 C   0  0  0  0  0  0  0  0  0  0  0  0
    7.7675    0.9559    0.2039 C   0  0  0  0  0  0  0  0  0  0  0  0
    8.8781   -1.2564   -0.2167 C   0  0  0  0  0  0  0  0  0  0  0  0
    1.9532    0.5109   -0.3675 N   0  0  0  0  0  0  0  0  0  0  0  0
   -2.4952   -0.6610   -0.0632 C   0  0  0  0  0  0  0  0  0  0  0  0
   -1.9222   -1.8901    0.1795 O   0  0  0  0  0  0  0  0  0  0  0  0
   -1.4403   -1.9820    1.5381 C   0  0  0  0  0  0  0  0  0  0  0  0
   -0.1157   -2.7449    1.5072 C   0  0  0  0  0  0  0  0  0  0  0  0
   -2.4603   -2.7364    2.3904 C   0  0  0  0  0  0  0  0  0  0  0  0
   -3.8826   -0.5488    0.0350 C   0  0  0  0  0  0  0  0  0  0  0  0
   -4.5428    0.6800   -0.1841 C   0  0  0  0  0  0  0  0  0  0  0  0
   -6.0648    0.6564   -0.0608 C   0  0  0  0  0  0  0  0  0  0  0  0
   -6.6987    1.7637    0.7966 C   0  0  0  0  0  0  0  0  0  0  0  0
   -8.2144    1.5775    0.8747 C   0  0  0  0  0  0  0  0  0  0  0  0
   -8.8194    1.5484   -0.4586 N   0  0  0  0  0  0  0  0  0  0  0  0
   -8.2678    0.4611   -1.2677 C   0  0  0  0  0  0  0  0  0  0  0  0
   -6.7527    0.5737   -1.4328 C   0  0  0  0  0  0  0  0  0  0  0  0
   -3.5819    3.7746   -1.3704 H   0  0  0  0  0  0  0  0  0  0  0  0
   -5.2022    3.1201   -1.4306 H   0  0  0  0  0  0  0  0  0  0  0  0
   -4.5123    3.6921    0.1277 H   0  0  0  0  0  0  0  0  0  0  0  0
   -1.7447    2.5180   -0.9042 H   0  0  0  0  0  0  0  0  0  0  0  0
   -0.0136   -0.6898   -0.6692 H   0  0  0  0  0  0  0  0  0  0  0  0
    1.5000    4.0166    0.9412 H   0  0  0  0  0  0  0  0  0  0  0  0
    4.6929    0.5466    0.9185 H   0  0  0  0  0  0  0  0  0  0  0  0
    3.3344   -0.1749   -2.4191 H   0  0  0  0  0  0  0  0  0  0  0  0
    3.8229   -2.2189   -3.6758 H   0  0  0  0  0  0  0  0  0  0  0  0
    5.4117   -3.9020   -2.7687 H   0  0  0  0  0  0  0  0  0  0  0  0
    6.5585   -3.4777   -0.6215 H   0  0  0  0  0  0  0  0  0  0  0  0
    8.5774   -0.3469    1.6884 H   0  0  0  0  0  0  0  0  0  0  0  0
    7.2110    0.9331   -0.7380 H   0  0  0  0  0  0  0  0  0  0  0  0
    8.7133    1.4733    0.0141 H   0  0  0  0  0  0  0  0  0  0  0  0
    7.2002    1.5630    0.9161 H   0  0  0  0  0  0  0  0  0  0  0  0
    8.4054   -1.3596   -1.1980 H   0  0  0  0  0  0  0  0  0  0  0  0
    9.8494   -0.7717   -0.3683 H   0  0  0  0  0  0  0  0  0  0  0  0
    9.0707   -2.2601    0.1706 H   0  0  0  0  0  0  0  0  0  0  0  0
   -1.2559   -0.9898    1.9751 H   0  0  0  0  0  0  0  0  0  0  0  0
    0.6113   -2.2399    0.8604 H   0  0  0  0  0  0  0  0  0  0  0  0
   -0.2517   -3.7543    1.1008 H   0  0  0  0  0  0  0  0  0  0  0  0
    0.3157   -2.8239    2.5124 H   0  0  0  0  0  0  0  0  0  0  0  0
   -2.6595   -3.7247    1.9654 H   0  0  0  0  0  0  0  0  0  0  0  0
   -2.1090   -2.8581    3.4196 H   0  0  0  0  0  0  0  0  0  0  0  0
   -3.4140   -2.1993    2.4194 H   0  0  0  0  0  0  0  0  0  0  0  0
   -4.4514   -1.4403    0.2908 H   0  0  0  0  0  0  0  0  0  0  0  0
   -6.3167   -0.2781    0.4656 H   0  0  0  0  0  0  0  0  0  0  0  0
   -6.5069    2.7578    0.3837 H   0  0  0  0  0  0  0  0  0  0  0  0
   -6.2701    1.7530    1.8079 H   0  0  0  0  0  0  0  0  0  0  0  0
   -8.4665    0.6583    1.4196 H   0  0  0  0  0  0  0  0  0  0  0  0
   -8.6542    2.4077    1.4413 H   0  0  0  0  0  0  0  0  0  0  0  0
   -8.6299    2.4350   -0.9286 H   0  0  0  0  0  0  0  0  0  0  0  0
   -8.7422    0.4833   -2.2550 H   0  0  0  0  0  0  0  0  0  0  0  0
   -8.5261   -0.5059   -0.8169 H   0  0  0  0  0  0  0  0  0  0  0  0
   -6.5195    1.4546   -2.0430 H   0  0  0  0  0  0  0  0  0  0  0  0
   -6.3813   -0.2946   -1.9923 H   0  0  0  0  0  0  0  0  0  0  0  0
  1  2  1  0
  2  3  2  0
  3  4  1  0
  4  5  1  0
  5  6  1  0
  6  7  2  0
  7  8  1  0
  8  9  2  0
  9 10  1  0
  9 11  1  0
 11 12  1  0
 12 13  1  0
 13 14  2  0
 14 15  1  0
 15 16  2  0
 16 17  1  0
 17 18  2  0
 18 19  1  0
 19 20  2  0
 19 21  2  0
 19 22  1  0
 22 23  1  0
 22 24  1  0
 11 25  2  0
  4 26  2  0
 26 27  1  0
 27 28  1  0
 28 29  1  0
 28 30  1  0
 26 31  1  0
 31 32  2  0
 32 33  1  0
 33 34  1  0
 34 35  1  0
 35 36  1  0
 36 37  1  0
 37 38  1  0
 32  2  1  0
 38 33  1  0
 25  6  1  0
 18 13  1  0
  1 39  1  0
  1 40  1  0
  1 41  1  0
  3 42  1  0
  5 43  1  0
  8 44  1  0
 12 45  1  0
 14 46  1  0
 15 47  1  0
 16 48  1  0
 17 49  1  0
 22 50  1  0
 23 51  1  0
 23 52  1  0
 23 53  1  0
 24 54  1  0
 24 55  1  0
 24 56  1  0
 28 57  1  0
 29 58  1  0
 29 59  1  0
 29 60  1  0
 30 61  1  0
 30 62  1  0
 30 63  1  0
 31 64  1  0
 33 65  1  0
 34 66  1  0
 34 67  1  0
 35 68  1  0
 35 69  1  0
 36 70  1  0
 37 71  1  0
 37 72  1  0
 38 73  1  0
 38 74  1  0
M  END
$$$$
Molecule_3
     RDKit          3D

 53 56  0  0  0  0  0  0  0  0999 V2000
   -0.4601   -1.3378   -2.6464 O   0  0  0  0  0  0  0  0  0  0  0  0
   -0.2366   -1.7760   -1.5240 C   0  0  0  0  0  0  0  0  0  0  0  0
    1.0528   -2.4694   -1.1352 C   0  0  0  0  0  0  0  0  0  0  0  0
    2.1522   -2.3458   -2.1901 C   0  0  0  0  0  0  0  0  0  0  0  0
    2.6349   -0.9152   -2.4579 C   0  0  0  0  0  0  0  0  0  0  0  0
    3.0288   -0.2051   -1.2432 N   0  0  0  0  0  0  0  0  0  0  0  0
    4.1565   -0.5343   -0.4812 C   0  0  0  0  0  0  0  0  0  0  0  0
    5.1912   -1.3094   -1.0082 C   0  0  0  0  0  0  0  0  0  0  0  0
    6.2957   -1.5896   -0.2274 C   0  0  0  0  0  0  0  0  0  0  0  0
    6.4610   -1.1399    1.0287 N   0  0  0  0  0  0  0  0  0  0  0  0
    5.5122   -0.3436    1.5363 C   0  0  0  0  0  0  0  0  0  0  0  0
    5.7148    0.1461    2.8176 C   0  0  0  0  0  0  0  0  0  0  0  0
    4.7957    0.9983    3.4210 C   0  0  0  0  0  0  0  0  0  0  0  0
    5.0852    1.5860    5.0118 Cl  0  0  0  0  0  0  0  0  0  0  0  0
    3.6497    1.3825    2.7430 C   0  0  0  0  0  0  0  0  0  0  0  0
    3.4244    0.8969    1.4547 C   0  0  0  0  0  0  0  0  0  0  0  0
    4.3395    0.0147    0.8241 C   0  0  0  0  0  0  0  0  0  0  0  0
   -1.1381   -1.7022   -0.4863 N   0  0  0  0  0  0  0  0  0  0  0  0
   -2.4178   -1.0303   -0.6265 C   0  0  0  0  0  0  0  0  0  0  0  0
   -2.2776    0.4907   -0.5390 C   0  0  0  0  0  0  0  0  0  0  0  0
   -3.6171    1.1876   -0.6355 C   0  0  0  0  0  0  0  0  0  0  0  0
   -4.0081    1.7414   -1.8680 C   0  0  0  0  0  0  0  0  0  0  0  0
   -5.2358    2.3799   -1.9960 C   0  0  0  0  0  0  0  0  0  0  0  0
   -6.0829    2.4658   -0.8963 C   0  0  0  0  0  0  0  0  0  0  0  0
   -5.7060    1.9086    0.3366 C   0  0  0  0  0  0  0  0  0  0  0  0
   -6.5530    1.9830    1.4504 C   0  0  0  0  0  0  0  0  0  0  0  0
   -6.1614    1.4214    2.6579 C   0  0  0  0  0  0  0  0  0  0  0  0
   -4.9305    0.8001    2.7099 C   0  0  0  0  0  0  0  0  0  0  0  0
   -4.0873    0.7074    1.6579 N   0  0  0  0  0  0  0  0  0  0  0  0
   -4.4605    1.2558    0.4815 C   0  0  0  0  0  0  0  0  0  0  0  0
    0.8196   -3.5316   -0.9924 H   0  0  0  0  0  0  0  0  0  0  0  0
    1.3977   -2.0791   -0.1714 H   0  0  0  0  0  0  0  0  0  0  0  0
    2.9975   -2.9664   -1.8713 H   0  0  0  0  0  0  0  0  0  0  0  0
    1.8003   -2.7729   -3.1375 H   0  0  0  0  0  0  0  0  0  0  0  0
    3.4539   -0.9236   -3.1862 H   0  0  0  0  0  0  0  0  0  0  0  0
    1.8369   -0.3355   -2.9339 H   0  0  0  0  0  0  0  0  0  0  0  0
    2.2287    0.0924   -0.6968 H   0  0  0  0  0  0  0  0  0  0  0  0
    5.1601   -1.7067   -2.0148 H   0  0  0  0  0  0  0  0  0  0  0  0
    7.1067   -2.2032   -0.6095 H   0  0  0  0  0  0  0  0  0  0  0  0
    6.6175   -0.1427    3.3503 H   0  0  0  0  0  0  0  0  0  0  0  0
    2.9332    2.0587    3.2015 H   0  0  0  0  0  0  0  0  0  0  0  0
    2.5284    1.2336    0.9416 H   0  0  0  0  0  0  0  0  0  0  0  0
   -0.8695   -2.0204    0.4362 H   0  0  0  0  0  0  0  0  0  0  0  0
   -2.8588   -1.3176   -1.5884 H   0  0  0  0  0  0  0  0  0  0  0  0
   -3.0666   -1.4190    0.1654 H   0  0  0  0  0  0  0  0  0  0  0  0
   -1.6140    0.8543   -1.3342 H   0  0  0  0  0  0  0  0  0  0  0  0
   -1.7780    0.7754    0.3963 H   0  0  0  0  0  0  0  0  0  0  0  0
   -3.3506    1.6725   -2.7331 H   0  0  0  0  0  0  0  0  0  0  0  0
   -5.5317    2.8081   -2.9503 H   0  0  0  0  0  0  0  0  0  0  0  0
   -7.0416    2.9675   -1.0065 H   0  0  0  0  0  0  0  0  0  0  0  0
   -7.5187    2.4773    1.3815 H   0  0  0  0  0  0  0  0  0  0  0  0
   -6.7996    1.4676    3.5326 H   0  0  0  0  0  0  0  0  0  0  0  0
   -4.5735    0.3437    3.6288 H   0  0  0  0  0  0  0  0  0  0  0  0
  1  2  2  0
  2  3  1  0
  3  4  1  0
  4  5  1  0
  5  6  1  0
  6  7  1  0
  7  8  2  0
  8  9  1  0
  9 10  2  0
 10 11  1  0
 11 12  2  0
 12 13  1  0
 13 14  1  0
 13 15  2  0
 15 16  1  0
 16 17  2  0
  2 18  1  0
 18 19  1  0
 19 20  1  0
 20 21  1  0
 21 22  2  0
 22 23  1  0
 23 24  2  0
 24 25  1  0
 25 26  2  0
 26 27  1  0
 27 28  2  0
 28 29  1  0
 29 30  2  0
 17  7  1  0
 30 21  1  0
 17 11  1  0
 30 25  1  0
  3 31  1  0
  3 32  1  0
  4 33  1  0
  4 34  1  0
  5 35  1  0
  5 36  1  0
  6 37  1  0
  8 38  1  0
  9 39  1  0
 12 40  1  0
 15 41  1  0
 16 42  1  0
 18 43  1  0
 19 44  1  0
 19 45  1  0
 20 46  1  0
 20 47  1  0
 22 48  1  0
 23 49  1  0
 24 50  1  0
 26 51  1  0
 27 52  1  0
 28 53  1  0
M  END
$$$$
Molecule_4
     RDKit          3D

 60 62  0  0  0  0  0  0  0  0999 V2000
   -1.8325   -2.1262   -2.6798 C   0  0  0  0  0  0  0  0  0  0  0  0
   -0.7181   -1.8510   -1.6761 C   0  0  0  0  0  0  0  0  0  0  0  0
   -1.2362   -1.3960   -0.3283 C   0  0  0  0  0  0  0  0  0  0  0  0
   -1.9450   -2.3582    0.4293 C   0  0  0  0  0  0  0  0  0  0  0  0
   -2.4761   -2.0700    1.6904 C   0  0  0  0  0  0  0  0  0  0  0  0
   -3.1792   -2.9613    2.4619 O   0  0  0  0  0  0  0  0  0  0  0  0
   -3.3398   -4.2824    1.9677 C   0  0  0  0  0  0  0  0  0  0  0  0
   -2.2936   -0.7915    2.2320 C   0  0  0  0  0  0  0  0  0  0  0  0
   -2.8380   -0.5747    3.4738 O   0  0  0  0  0  0  0  0  0  0  0  0
   -2.6198    0.6933    4.0760 C   0  0  0  0  0  0  0  0  0  0  0  0
   -1.5845    0.1652    1.4984 C   0  0  0  0  0  0  0  0  0  0  0  0
   -1.0477   -0.1064    0.2161 C   0  0  0  0  0  0  0  0  0  0  0  0
   -0.2880    1.0450   -0.4497 C   0  0  2  0  0  0  0  0  0  0  0  0
   -0.9278    1.5693   -1.7550 C   0  0  0  0  0  0  0  0  0  0  0  0
   -2.2006    2.3531   -1.5207 C   0  0  0  0  0  0  0  0  0  0  0  0
   -2.1493    3.7395   -1.3187 C   0  0  0  0  0  0  0  0  0  0  0  0
   -3.3180    4.4640   -1.0795 C   0  0  0  0  0  0  0  0  0  0  0  0
   -4.5475    3.8105   -1.0345 C   0  0  0  0  0  0  0  0  0  0  0  0
   -4.6092    2.4321   -1.2269 C   0  0  0  0  0  0  0  0  0  0  0  0
   -3.4422    1.7062   -1.4690 C   0  0  0  0  0  0  0  0  0  0  0  0
    1.1160    0.6874   -0.6317 N   0  0  0  0  0  0  0  0  0  0  0  0
    2.0603    0.9360    0.3420 C   0  0  0  0  0  0  0  0  0  0  0  0
    1.8481    1.6151    1.3395 O   0  0  0  0  0  0  0  0  0  0  0  0
    3.4143    0.3618    0.1099 C   0  0  0  0  0  0  0  0  0  0  0  0
    4.5217    1.0282    0.6485 C   0  0  0  0  0  0  0  0  0  0  0  0
    5.8145    0.5250    0.4610 C   0  0  0  0  0  0  0  0  0  0  0  0
    6.0085   -0.6537   -0.2599 C   0  0  0  0  0  0  0  0  0  0  0  0
    7.2110   -1.2514   -0.5174 O   0  0  0  0  0  0  0  0  0  0  0  0
    8.3652   -0.6443    0.0509 C   0  0  0  0  0  0  0  0  0  0  0  0
    4.9002   -1.3272   -0.7827 C   0  0  0  0  0  0  0  0  0  0  0  0
    3.6066   -0.8303   -0.5962 C   0  0  0  0  0  0  0  0  0  0  0  0
   -1.4051   -2.4168   -3.6446 H   0  0  0  0  0  0  0  0  0  0  0  0
   -2.4549   -1.2407   -2.8384 H   0  0  0  0  0  0  0  0  0  0  0  0
   -2.4856   -2.9400   -2.3488 H   0  0  0  0  0  0  0  0  0  0  0  0
   -0.1252   -2.7634   -1.5310 H   0  0  0  0  0  0  0  0  0  0  0  0
   -0.0300   -1.1309   -2.1170 H   0  0  0  0  0  0  0  0  0  0  0  0
   -2.0683   -3.3492    0.0025 H   0  0  0  0  0  0  0  0  0  0  0  0
   -3.9186   -4.2894    1.0373 H   0  0  0  0  0  0  0  0  0  0  0  0
   -3.9039   -4.8513    2.7134 H   0  0  0  0  0  0  0  0  0  0  0  0
   -2.3707   -4.7769    1.8362 H   0  0  0  0  0  0  0  0  0  0  0  0
   -1.5517    0.8850    4.2226 H   0  0  0  0  0  0  0  0  0  0  0  0
   -3.0916    1.4923    3.4941 H   0  0  0  0  0  0  0  0  0  0  0  0
   -3.0921    0.6801    5.0634 H   0  0  0  0  0  0  0  0  0  0  0  0
   -1.4268    1.1570    1.9146 H   0  0  0  0  0  0  0  0  0  0  0  0
   -0.2850    1.8955    0.2455 H   0  0  0  0  0  0  0  0  0  0  0  0
   -1.1270    0.7687   -2.4730 H   0  0  0  0  0  0  0  0  0  0  0  0
   -0.2121    2.2289   -2.2656 H   0  0  0  0  0  0  0  0  0  0  0  0
   -1.1972    4.2652   -1.3417 H   0  0  0  0  0  0  0  0  0  0  0  0
   -3.2685    5.5385   -0.9240 H   0  0  0  0  0  0  0  0  0  0  0  0
   -5.4570    4.3740   -0.8444 H   0  0  0  0  0  0  0  0  0  0  0  0
   -5.5665    1.9192   -1.1826 H   0  0  0  0  0  0  0  0  0  0  0  0
   -3.5117    0.6295   -1.6037 H   0  0  0  0  0  0  0  0  0  0  0  0
    1.3787    0.1740   -1.4580 H   0  0  0  0  0  0  0  0  0  0  0  0
    4.3802    1.9450    1.2190 H   0  0  0  0  0  0  0  0  0  0  0  0
    6.6427    1.0773    0.8936 H   0  0  0  0  0  0  0  0  0  0  0  0
    8.3070   -0.6324    1.1449 H   0  0  0  0  0  0  0  0  0  0  0  0
    9.2331   -1.2494   -0.2301 H   0  0  0  0  0  0  0  0  0  0  0  0
    8.5185    0.3638   -0.3489 H   0  0  0  0  0  0  0  0  0  0  0  0
    5.0476   -2.2565   -1.3291 H   0  0  0  0  0  0  0  0  0  0  0  0
    2.7683   -1.4042   -0.9779 H   0  0  0  0  0  0  0  0  0  0  0  0
  1  2  1  0
  2  3  1  0
  3  4  2  0
  4  5  1  0
  5  6  1  0
  6  7  1  0
  5  8  2  0
  8  9  1  0
  9 10  1  0
  8 11  1  0
 11 12  2  0
 12 13  1  0
 13 14  1  0
 14 15  1  0
 15 16  2  0
 16 17  1  0
 17 18  2  0
 18 19  1  0
 19 20  2  0
 13 21  1  0
 21 22  1  0
 22 23  2  0
 22 24  1  0
 24 25  2  0
 25 26  1  0
 26 27  2  0
 27 28  1  0
 28 29  1  0
 27 30  1  0
 30 31  2  0
 12  3  1  0
 20 15  1  0
 31 24  1  0
  1 32  1  0
  1 33  1  0
  1 34  1  0
  2 35  1  0
  2 36  1  0
  4 37  1  0
  7 38  1  0
  7 39  1  0
  7 40  1  0
 10 41  1  0
 10 42  1  0
 10 43  1  0
 11 44  1  0
 13 45  1  1
 14 46  1  0
 14 47  1  0
 16 48  1  0
 17 49  1  0
 18 50  1  0
 19 51  1  0
 20 52  1  0
 21 53  1  0
 25 54  1  0
 26 55  1  0
 29 56  1  0
 29 57  1  0
 29 58  1  0
 30 59  1  0
 31 60  1  0
M  END
$$$$
Molecule_5
     RDKit          3D

 45 48  0  0  0  0  0  0  0  0999 V2000
   -2.7321   -0.7553   -0.6531 C   0  0  0  0  0  0  0  0  0  0  0  0
   -3.7184    0.3830   -0.6594 C   0  0  0  0  0  0  0  0  0  0  0  0
   -4.5728    0.5052   -1.7713 C   0  0  0  0  0  0  0  0  0  0  0  0
   -5.4964    1.5440   -1.8510 C   0  0  0  0  0  0  0  0  0  0  0  0
   -5.5707    2.4706   -0.8195 C   0  0  0  0  0  0  0  0  0  0  0  0
   -6.7189    3.7510   -0.9124 Cl  0  0  0  0  0  0  0  0  0  0  0  0
   -4.7284    2.3708    0.2890 C   0  0  0  0  0  0  0  0  0  0  0  0
   -3.7888    1.3356    0.3835 C   0  0  0  0  0  0  0  0  0  0  0  0
   -2.9238    1.1988    1.4976 N   0  0  0  0  0  0  0  0  0  0  0  0
   -2.7627    2.0748    2.5603 C   0  0  0  0  0  0  0  0  0  0  0  0
   -3.2885    3.1795    2.6769 O   0  0  0  0  0  0  0  0  0  0  0  0
   -1.8387    1.5490    3.6483 C   0  0  0  0  0  0  0  0  0  0  0  0
   -0.1136    1.9923    3.2955 S   0  0  0  0  0  0  0  0  0  0  0  0
    0.3319    0.7431    2.1908 C   0  0  0  0  0  0  0  0  0  0  0  0
   -0.4274   -0.2714    1.8462 N   0  0  0  0  0  0  0  0  0  0  0  0
    0.2816   -1.0376    0.9575 N   0  0  0  0  0  0  0  0  0  0  0  0
    1.4598   -0.4711    0.7742 C   0  0  0  0  0  0  0  0  0  0  0  0
    2.4729   -0.9879   -0.0934 C   0  0  0  0  0  0  0  0  0  0  0  0
    2.4243   -2.1430   -0.8590 C   0  0  0  0  0  0  0  0  0  0  0  0
    3.6541   -2.2473   -1.5567 C   0  0  0  0  0  0  0  0  0  0  0  0
    4.2226   -3.1542   -2.4676 C   0  0  0  0  0  0  0  0  0  0  0  0
    5.5137   -2.8986   -2.9517 C   0  0  0  0  0  0  0  0  0  0  0  0
    6.2267   -1.7687   -2.5414 C   0  0  0  0  0  0  0  0  0  0  0  0
    5.6768   -0.8561   -1.6351 C   0  0  0  0  0  0  0  0  0  0  0  0
    4.3935   -1.1380   -1.1736 C   0  0  0  0  0  0  0  0  0  0  0  0
    3.6866   -0.3800   -0.2935 O   0  0  0  0  0  0  0  0  0  0  0  0
    1.5330    0.6693    1.5419 N   0  0  0  0  0  0  0  0  0  0  0  0
    2.6521    1.5728    1.6170 C   0  0  0  0  0  0  0  0  0  0  0  0
   -2.8114   -1.3331    0.2728 H   0  0  0  0  0  0  0  0  0  0  0  0
   -2.9153   -1.4520   -1.4784 H   0  0  0  0  0  0  0  0  0  0  0  0
   -1.7172   -0.3654   -0.7694 H   0  0  0  0  0  0  0  0  0  0  0  0
   -4.5216   -0.2142   -2.5865 H   0  0  0  0  0  0  0  0  0  0  0  0
   -6.1506    1.6234   -2.7146 H   0  0  0  0  0  0  0  0  0  0  0  0
   -4.8337    3.1152    1.0707 H   0  0  0  0  0  0  0  0  0  0  0  0
   -2.2839    0.4060    1.4809 H   0  0  0  0  0  0  0  0  0  0  0  0
   -2.1306    2.0215    4.5925 H   0  0  0  0  0  0  0  0  0  0  0  0
   -1.9680    0.4706    3.7862 H   0  0  0  0  0  0  0  0  0  0  0  0
    1.5884   -2.8282   -0.9022 H   0  0  0  0  0  0  0  0  0  0  0  0
    3.6773   -4.0349   -2.7934 H   0  0  0  0  0  0  0  0  0  0  0  0
    5.9660   -3.5916   -3.6584 H   0  0  0  0  0  0  0  0  0  0  0  0
    7.2269   -1.5948   -2.9335 H   0  0  0  0  0  0  0  0  0  0  0  0
    6.2159    0.0242   -1.3077 H   0  0  0  0  0  0  0  0  0  0  0  0
    3.5226    1.0195    1.9792 H   0  0  0  0  0  0  0  0  0  0  0  0
    2.4489    2.3970    2.3020 H   0  0  0  0  0  0  0  0  0  0  0  0
    2.8379    1.9806    0.6199 H   0  0  0  0  0  0  0  0  0  0  0  0
  1  2  1  0
  2  3  2  0
  3  4  1  0
  4  5  2  0
  5  6  1  0
  5  7  1  0
  7  8  2  0
  8  9  1  0
  9 10  1  0
 10 11  2  0
 10 12  1  0
 12 13  1  0
 13 14  1  0
 14 15  2  0
 15 16  1  0
 16 17  2  0
 17 18  1  0
 18 19  2  0
 19 20  1  0
 20 21  2  0
 21 22  1  0
 22 23  2  0
 23 24  1  0
 24 25  2  0
 25 26  1  0
 17 27  1  0
 27 28  1  0
  8  2  1  0
 27 14  1  0
 26 18  1  0
 25 20  1  0
  1 29  1  0
  1 30  1  0
  1 31  1  0
  3 32  1  0
  4 33  1  0
  7 34  1  0
  9 35  1  0
 12 36  1  0
 12 37  1  0
 19 38  1  0
 21 39  1  0
 22 40  1  0
 23 41  1  0
 24 42  1  0
 28 43  1  0
 28 44  1  0
 28 45  1  0
M  END
$$$$
Molecule_6
     RDKit          3D

 48 50  0  0  0  0  0  0  0  0999 V2000
   -0.9632    0.1070    0.7966 O   0  0  0  0  0  0  0  0  0  0  0  0
   -1.1090   -0.7568   -0.0571 C   0  0  0  0  0  0  0  0  0  0  0  0
   -2.1291   -0.8209   -0.9501 O   0  0  0  0  0  0  0  0  0  0  0  0
   -3.1712    0.1428   -0.7374 C   0  0  1  0  0  0  0  0  0  0  0  0
   -3.9787    0.2381   -2.0371 C   0  0  0  0  0  0  0  0  0  0  0  0
   -5.3904    0.8176   -1.9361 C   0  0  0  0  0  0  0  0  0  0  0  0
   -5.5401    2.0987   -1.1147 C   0  0  0  0  0  0  0  0  0  0  0  0
   -5.0714    2.0334    0.3407 C   0  0  0  0  0  0  0  0  0  0  0  0
   -4.9821    0.6909    0.8652 N   0  0  0  0  0  0  0  0  0  0  0  0
   -4.0630   -0.2447    0.4576 C   0  0  0  0  0  0  0  0  0  0  0  0
   -4.0003   -1.3309    1.0301 O   0  0  0  0  0  0  0  0  0  0  0  0
   -0.1391   -1.8634   -0.2880 C   0  0  0  0  0  0  0  0  0  0  0  0
   -0.5575   -3.0336   -0.9477 C   0  0  0  0  0  0  0  0  0  0  0  0
    0.3368   -4.0803   -1.1654 C   0  0  0  0  0  0  0  0  0  0  0  0
    1.6490   -3.9705   -0.7196 C   0  0  0  0  0  0  0  0  0  0  0  0
    2.0695   -2.8139   -0.0572 C   0  0  0  0  0  0  0  0  0  0  0  0
    1.1926   -1.7410    0.1735 C   0  0  0  0  0  0  0  0  0  0  0  0
    1.6404   -0.5683    0.8226 N   0  0  0  0  0  0  0  0  0  0  0  0
    2.8685    0.1144    0.8015 C   0  0  0  0  0  0  0  0  0  0  0  0
    3.8643   -0.1152   -0.1517 C   0  0  0  0  0  0  0  0  0  0  0  0
    5.0880    0.5638   -0.0962 C   0  0  0  0  0  0  0  0  0  0  0  0
    5.3486    1.4740    0.9302 C   0  0  0  0  0  0  0  0  0  0  0  0
    6.9165    2.3180    0.9608 S   0  0  0  0  0  0  0  0  0  0  0  0
    7.4849    1.8482    2.6090 C   0  0  0  0  0  0  0  0  0  0  0  0
    6.7948    2.5222    3.5647 F   0  0  0  0  0  0  0  0  0  0  0  0
    8.7883    2.1997    2.7615 F   0  0  0  0  0  0  0  0  0  0  0  0
    4.3585    1.7183    1.8825 C   0  0  0  0  0  0  0  0  0  0  0  0
    3.1370    1.0380    1.8210 C   0  0  0  0  0  0  0  0  0  0  0  0
   -2.7110    1.1189   -0.5431 H   0  0  0  0  0  0  0  0  0  0  0  0
   -4.0521   -0.7570   -2.4966 H   0  0  0  0  0  0  0  0  0  0  0  0
   -3.3972    0.8343   -2.7529 H   0  0  0  0  0  0  0  0  0  0  0  0
   -5.7568    1.0108   -2.9524 H   0  0  0  0  0  0  0  0  0  0  0  0
   -6.0621    0.0511   -1.5278 H   0  0  0  0  0  0  0  0  0  0  0  0
   -5.0280    2.9280   -1.6176 H   0  0  0  0  0  0  0  0  0  0  0  0
   -6.6053    2.3650   -1.1169 H   0  0  0  0  0  0  0  0  0  0  0  0
   -4.0890    2.5068    0.4434 H   0  0  0  0  0  0  0  0  0  0  0  0
   -5.7604    2.5946    0.9811 H   0  0  0  0  0  0  0  0  0  0  0  0
   -5.5234    0.4254    1.6801 H   0  0  0  0  0  0  0  0  0  0  0  0
   -1.5858   -3.1445   -1.2848 H   0  0  0  0  0  0  0  0  0  0  0  0
    0.0055   -4.9836   -1.6717 H   0  0  0  0  0  0  0  0  0  0  0  0
    2.3474   -4.7894   -0.8740 H   0  0  0  0  0  0  0  0  0  0  0  0
    3.0910   -2.7719    0.3133 H   0  0  0  0  0  0  0  0  0  0  0  0
    0.8690    0.0021    1.1852 H   0  0  0  0  0  0  0  0  0  0  0  0
    3.6916   -0.7992   -0.9777 H   0  0  0  0  0  0  0  0  0  0  0  0
    5.8298    0.3723   -0.8685 H   0  0  0  0  0  0  0  0  0  0  0  0
    7.3934    0.7733    2.7885 H   0  0  0  0  0  0  0  0  0  0  0  0
    4.5128    2.4426    2.6792 H   0  0  0  0  0  0  0  0  0  0  0  0
    2.3878    1.2350    2.5853 H   0  0  0  0  0  0  0  0  0  0  0  0
  1  2  2  0
  2  3  1  0
  3  4  1  0
  4  5  1  0
  5  6  1  0
  6  7  1  0
  7  8  1  0
  8  9  1  0
  9 10  1  0
 10 11  2  0
  2 12  1  0
 12 13  2  0
 13 14  1  0
 14 15  2  0
 15 16  1  0
 16 17  2  0
 17 18  1  0
 18 19  1  0
 19 20  2  0
 20 21  1  0
 21 22  2  0
 22 23  1  0
 23 24  1  0
 24 25  1  0
 24 26  1  0
 22 27  1  0
 27 28  2  0
 10  4  1  0
 17 12  1  0
 28 19  1  0
  4 29  1  1
  5 30  1  0
  5 31  1  0
  6 32  1  0
  6 33  1  0
  7 34  1  0
  7 35  1  0
  8 36  1  0
  8 37  1  0
  9 38  1  0
 13 39  1  0
 14 40  1  0
 15 41  1  0
 16 42  1  0
 18 43  1  0
 20 44  1  0
 21 45  1  0
 24 46  1  0
 27 47  1  0
 28 48  1  0
M  END
$$$$
Molecule_7
     RDKit          3D

 54 58  0  0  0  0  0  0  0  0999 V2000
    4.0714    0.0065   -0.5531 O   0  0  0  0  0  0  0  0  0  0  0  0
    3.0079   -0.3816   -0.0700 C   0  0  0  0  0  0  0  0  0  0  0  0
    2.6705   -0.1449    1.2574 N   0  0  0  0  0  0  0  0  0  0  0  0
    3.4808    0.6611    2.1125 C   0  0  0  0  0  0  0  0  0  0  0  0
    3.2357    2.1407    2.2259 C   0  0  0  0  0  0  0  0  0  0  0  0
    2.9155    1.2388    3.3819 C   0  0  0  0  0  0  0  0  0  0  0  0
    1.9331   -1.1694   -0.8455 C   0  0  1  0  0  0  0  0  0  0  0  0
    0.6555   -0.0018   -1.4613 S   0  0  0  0  0  0  0  0  0  0  0  0
   -0.4279    0.0830   -0.1012 C   0  0  0  0  0  0  0  0  0  0  0  0
   -0.0819   -0.3069    1.1103 N   0  0  0  0  0  0  0  0  0  0  0  0
   -1.1310    0.0412    1.9023 C   0  0  0  0  0  0  0  0  0  0  0  0
   -2.1198    0.6785    1.1835 C   0  0  0  0  0  0  0  0  0  0  0  0
   -1.6865    0.6855   -0.1359 N   0  0  0  0  0  0  0  0  0  0  0  0
   -2.4179    1.1523   -1.2625 C   0  0  0  0  0  0  0  0  0  0  0  0
   -3.1050    2.3705   -1.1985 C   0  0  0  0  0  0  0  0  0  0  0  0
   -3.8337    2.8224   -2.3011 C   0  0  0  0  0  0  0  0  0  0  0  0
   -3.8815    2.0625   -3.4681 C   0  0  0  0  0  0  0  0  0  0  0  0
   -3.1988    0.8497   -3.5366 C   0  0  0  0  0  0  0  0  0  0  0  0
   -2.4668    0.3927   -2.4385 C   0  0  0  0  0  0  0  0  0  0  0  0
   -3.4511    1.0617    1.7381 C   0  0  0  0  0  0  0  0  0  0  0  0
   -3.4339    0.9823    3.2807 C   0  0  0  0  0  0  0  0  0  0  0  0
   -2.6857   -0.2539    3.8111 C   0  0  0  0  0  0  0  0  0  0  0  0
   -1.2175   -0.2692    3.3523 C   0  0  0  0  0  0  0  0  0  0  0  0
    2.4763   -2.0200   -1.9897 C   0  0  0  0  0  0  0  0  0  0  0  0
    2.2029   -3.3996   -2.0200 C   0  0  0  0  0  0  0  0  0  0  0  0
    2.6745   -4.2006   -3.0624 C   0  0  0  0  0  0  0  0  0  0  0  0
    3.4248   -3.6366   -4.0911 C   0  0  0  0  0  0  0  0  0  0  0  0
    3.6986   -2.2708   -4.0824 C   0  0  0  0  0  0  0  0  0  0  0  0
    3.2266   -1.4680   -3.0419 C   0  0  0  0  0  0  0  0  0  0  0  0
    1.6820   -0.2570    1.4979 H   0  0  0  0  0  0  0  0  0  0  0  0
    4.5182    0.3324    2.1448 H   0  0  0  0  0  0  0  0  0  0  0  0
    4.1035    2.7849    2.3016 H   0  0  0  0  0  0  0  0  0  0  0  0
    2.4153    2.5673    1.6612 H   0  0  0  0  0  0  0  0  0  0  0  0
    1.8716    1.0661    3.6124 H   0  0  0  0  0  0  0  0  0  0  0  0
    3.5628    1.2744    4.2497 H   0  0  0  0  0  0  0  0  0  0  0  0
    1.4624   -1.8613   -0.1355 H   0  0  0  0  0  0  0  0  0  0  0  0
   -3.0425    3.0126   -0.3251 H   0  0  0  0  0  0  0  0  0  0  0  0
   -4.3536    3.7760   -2.2549 H   0  0  0  0  0  0  0  0  0  0  0  0
   -4.4455    2.4189   -4.3268 H   0  0  0  0  0  0  0  0  0  0  0  0
   -3.2384    0.2552   -4.4458 H   0  0  0  0  0  0  0  0  0  0  0  0
   -1.9753   -0.5740   -2.5160 H   0  0  0  0  0  0  0  0  0  0  0  0
   -3.7431    2.0760    1.4595 H   0  0  0  0  0  0  0  0  0  0  0  0
   -4.2104    0.3728    1.3495 H   0  0  0  0  0  0  0  0  0  0  0  0
   -4.4642    0.9839    3.6544 H   0  0  0  0  0  0  0  0  0  0  0  0
   -2.9501    1.8832    3.6812 H   0  0  0  0  0  0  0  0  0  0  0  0
   -2.7277   -0.2761    4.9059 H   0  0  0  0  0  0  0  0  0  0  0  0
   -3.1930   -1.1582    3.4507 H   0  0  0  0  0  0  0  0  0  0  0  0
   -0.6497    0.4835    3.9112 H   0  0  0  0  0  0  0  0  0  0  0  0
   -0.7712   -1.2467    3.5641 H   0  0  0  0  0  0  0  0  0  0  0  0
    1.6182   -3.8643   -1.2283 H   0  0  0  0  0  0  0  0  0  0  0  0
    2.4567   -5.2653   -3.0712 H   0  0  0  0  0  0  0  0  0  0  0  0
    3.7953   -4.2597   -4.9002 H   0  0  0  0  0  0  0  0  0  0  0  0
    4.2855   -1.8269   -4.8818 H   0  0  0  0  0  0  0  0  0  0  0  0
    3.4581   -0.4038   -3.0543 H   0  0  0  0  0  0  0  0  0  0  0  0
  1  2  2  0
  2  3  1  0
  3  4  1  0
  4  5  1  0
  5  6  1  0
  2  7  1  0
  7  8  1  0
  8  9  1  0
  9 10  2  0
 10 11  1  0
 11 12  2  0
 12 13  1  0
 13 14  1  0
 14 15  2  0
 15 16  1  0
 16 17  2  0
 17 18  1  0
 18 19  2  0
 12 20  1  0
 20 21  1  0
 21 22  1  0
 22 23  1  0
  7 24  1  0
 24 25  2  0
 25 26  1  0
 26 27  2  0
 27 28  1  0
 28 29  2  0
  6  4  1  0
 13  9  1  0
 19 14  1  0
 29 24  1  0
 23 11  1  0
  3 30  1  0
  4 31  1  0
  5 32  1  0
  5 33  1  0
  6 34  1  0
  6 35  1  0
  7 36  1  1
 15 37  1  0
 16 38  1  0
 17 39  1  0
 18 40  1  0
 19 41  1  0
 20 42  1  0
 20 43  1  0
 21 44  1  0
 21 45  1  0
 22 46  1  0
 22 47  1  0
 23 48  1  0
 23 49  1  0
 25 50  1  0
 26 51  1  0
 27 52  1  0
 28 53  1  0
 29 54  1  0
M  END
$$$$
Molecule_8
     RDKit          3D

 55 57  0  0  0  0  0  0  0  0999 V2000
   -8.3562   -1.6442   -1.0687 C   0  0  0  0  0  0  0  0  0  0  0  0
   -7.1347   -2.1497   -0.5448 O   0  0  0  0  0  0  0  0  0  0  0  0
   -6.2106   -1.2298   -0.1312 C   0  0  0  0  0  0  0  0  0  0  0  0
   -6.3572    0.1547   -0.1725 C   0  0  0  0  0  0  0  0  0  0  0  0
   -5.3271    0.9841    0.2854 C   0  0  0  0  0  0  0  0  0  0  0  0
   -4.1352    0.4430    0.7916 C   0  0  0  0  0  0  0  0  0  0  0  0
   -3.0924    1.2646    1.2540 C   0  0  0  0  0  0  0  0  0  0  0  0
   -1.9066    0.7140    1.7635 C   0  0  0  0  0  0  0  0  0  0  0  0
   -0.7832    1.6023    2.2304 C   0  0  0  0  0  0  0  0  0  0  0  0
    0.1771    1.8107    1.1706 N   0  0  0  0  0  0  0  0  0  0  0  0
    1.3269    1.0588    1.0783 C   0  0  0  0  0  0  0  0  0  0  0  0
    1.6739    0.2480    1.9383 O   0  0  0  0  0  0  0  0  0  0  0  0
    2.1786    1.3273   -0.1817 C   0  0  2  0  0  0  0  0  0  0  0  0
    3.0041    0.1401   -0.3885 N   0  0  0  0  0  0  0  0  0  0  0  0
    3.5090   -0.1977   -1.6202 C   0  0  0  0  0  0  0  0  0  0  0  0
    3.2888    0.4312   -2.6460 O   0  0  0  0  0  0  0  0  0  0  0  0
    4.3392   -1.4202   -1.6378 C   0  0  0  0  0  0  0  0  0  0  0  0
    3.7777   -2.6127   -1.1543 C   0  0  0  0  0  0  0  0  0  0  0  0
    4.5222   -3.7927   -1.1711 C   0  0  0  0  0  0  0  0  0  0  0  0
    5.8238   -3.7865   -1.6700 C   0  0  0  0  0  0  0  0  0  0  0  0
    6.3842   -2.6005   -2.1509 C   0  0  0  0  0  0  0  0  0  0  0  0
    5.6451   -1.4125   -2.1378 C   0  0  0  0  0  0  0  0  0  0  0  0
    6.4282    0.0227   -2.6932 Cl  0  0  0  0  0  0  0  0  0  0  0  0
    3.0453    2.6056   -0.0919 C   0  0  0  0  0  0  0  0  0  0  0  0
    3.9359    2.6397    1.1542 C   0  0  0  0  0  0  0  0  0  0  0  0
    2.2122    3.8863   -0.1762 C   0  0  0  0  0  0  0  0  0  0  0  0
   -1.7643   -0.6777    1.7933 C   0  0  0  0  0  0  0  0  0  0  0  0
   -2.7922   -1.5052    1.3371 C   0  0  0  0  0  0  0  0  0  0  0  0
   -3.9830   -0.9593    0.8347 C   0  0  0  0  0  0  0  0  0  0  0  0
   -5.0266   -1.7774    0.3712 C   0  0  0  0  0  0  0  0  0  0  0  0
   -8.9776   -2.4992   -1.3521 H   0  0  0  0  0  0  0  0  0  0  0  0
   -8.9030   -1.0715   -0.3124 H   0  0  0  0  0  0  0  0  0  0  0  0
   -8.1821   -1.0462   -1.9693 H   0  0  0  0  0  0  0  0  0  0  0  0
   -7.2576    0.6243   -0.5536 H   0  0  0  0  0  0  0  0  0  0  0  0
   -5.4661    2.0621    0.2430 H   0  0  0  0  0  0  0  0  0  0  0  0
   -3.2070    2.3463    1.2182 H   0  0  0  0  0  0  0  0  0  0  0  0
   -0.3001    1.1748    3.1161 H   0  0  0  0  0  0  0  0  0  0  0  0
   -1.1697    2.5868    2.5163 H   0  0  0  0  0  0  0  0  0  0  0  0
   -0.1537    2.2830    0.3394 H   0  0  0  0  0  0  0  0  0  0  0  0
    1.5018    1.4011   -1.0425 H   0  0  0  0  0  0  0  0  0  0  0  0
    3.2418   -0.3976    0.4403 H   0  0  0  0  0  0  0  0  0  0  0  0
    2.7557   -2.6290   -0.7813 H   0  0  0  0  0  0  0  0  0  0  0  0
    4.0850   -4.7177   -0.8018 H   0  0  0  0  0  0  0  0  0  0  0  0
    6.4049   -4.7059   -1.6856 H   0  0  0  0  0  0  0  0  0  0  0  0
    7.4030   -2.6077   -2.5319 H   0  0  0  0  0  0  0  0  0  0  0  0
    3.7163    2.6144   -0.9617 H   0  0  0  0  0  0  0  0  0  0  0  0
    4.5930    3.5160    1.1311 H   0  0  0  0  0  0  0  0  0  0  0  0
    4.5742    1.7522    1.2105 H   0  0  0  0  0  0  0  0  0  0  0  0
    3.3440    2.6948    2.0736 H   0  0  0  0  0  0  0  0  0  0  0  0
    2.8655    4.7590   -0.2858 H   0  0  0  0  0  0  0  0  0  0  0  0
    1.5435    3.8629   -1.0428 H   0  0  0  0  0  0  0  0  0  0  0  0
    1.6093    4.0429    0.7232 H   0  0  0  0  0  0  0  0  0  0  0  0
   -0.8458   -1.1254    2.1704 H   0  0  0  0  0  0  0  0  0  0  0  0
   -2.6544   -2.5837    1.3745 H   0  0  0  0  0  0  0  0  0  0  0  0
   -4.9233   -2.8602    0.3981 H   0  0  0  0  0  0  0  0  0  0  0  0
  1  2  1  0
  2  3  1  0
  3  4  2  0
  4  5  1  0
  5  6  2  0
  6  7  1  0
  7  8  2  0
  8  9  1  0
  9 10  1  0
 10 11  1  0
 11 12  2  0
 11 13  1  0
 13 14  1  0
 14 15  1  0
 15 16  2  0
 15 17  1  0
 17 18  2  0
 18 19  1  0
 19 20  2  0
 20 21  1  0
 21 22  2  0
 22 23  1  0
 13 24  1  0
 24 25  1  0
 24 26  1  0
  8 27  1  0
 27 28  2  0
 28 29  1  0
 29 30  2  0
 30  3  1  0
 29  6  1  0
 22 17  1  0
  1 31  1  0
  1 32  1  0
  1 33  1  0
  4 34  1  0
  5 35  1  0
  7 36  1  0
  9 37  1  0
  9 38  1  0
 10 39  1  0
 13 40  1  6
 14 41  1  0
 18 42  1  0
 19 43  1  0
 20 44  1  0
 21 45  1  0
 24 46  1  0
 25 47  1  0
 25 48  1  0
 25 49  1  0
 26 50  1  0
 26 51  1  0
 26 52  1  0
 27 53  1  0
 28 54  1  0
 30 55  1  0
M  END
$$$$
Molecule_9
     RDKit          3D

 32 34  0  0  0  0  0  0  0  0999 V2000
   -1.0649    1.3885   -3.2301 N   0  0  0  0  0  0  0  0  0  0  0  0
   -1.1764    1.0611   -2.1228 C   0  0  0  0  0  0  0  0  0  0  0  0
   -1.3049    0.6887   -0.7431 C   0  0  0  0  0  0  0  0  0  0  0  0
   -0.4739    1.2949    0.2214 C   0  0  0  0  0  0  0  0  0  0  0  0
    0.5008    2.2787   -0.1608 N   0  0  0  0  0  0  0  0  0  0  0  0
    2.0282    2.3799    0.5491 S   0  0  0  0  0  0  0  0  0  0  0  0
    2.8294    3.2445   -0.2869 O   0  0  0  0  0  0  0  0  0  0  0  0
    1.8542    2.6871    1.9539 O   0  0  0  0  0  0  0  0  0  0  0  0
    2.6798    0.7553    0.4361 C   0  0  0  0  0  0  0  0  0  0  0  0
    2.9884    0.0453    1.6018 C   0  0  0  0  0  0  0  0  0  0  0  0
    3.5014   -1.2442    1.5005 C   0  0  0  0  0  0  0  0  0  0  0  0
    3.6874   -1.7752    0.2365 C   0  0  0  0  0  0  0  0  0  0  0  0
    3.3991   -1.1090   -0.9018 N   0  0  0  0  0  0  0  0  0  0  0  0
    2.9118    0.1509   -0.7822 C   0  0  0  0  0  0  0  0  0  0  0  0
    2.5742    0.8478   -2.3158 Cl  0  0  0  0  0  0  0  0  0  0  0  0
   -0.6809    0.9771    1.5613 C   0  0  0  0  0  0  0  0  0  0  0  0
   -1.6377    0.0256    1.9261 C   0  0  0  0  0  0  0  0  0  0  0  0
   -2.4294   -0.6175    0.9911 C   0  0  0  0  0  0  0  0  0  0  0  0
   -3.3157   -1.5233    1.4322 N   0  0  0  0  0  0  0  0  0  0  0  0
   -4.1037   -2.1441    0.5296 C   0  0  0  0  0  0  0  0  0  0  0  0
   -4.0490   -1.8986   -0.8251 C   0  0  0  0  0  0  0  0  0  0  0  0
   -3.1283   -0.9603   -1.2777 C   0  0  0  0  0  0  0  0  0  0  0  0
   -2.2781   -0.2846   -0.3702 C   0  0  0  0  0  0  0  0  0  0  0  0
    0.5111    2.6417   -1.1189 H   0  0  0  0  0  0  0  0  0  0  0  0
    2.8371    0.4856    2.5855 H   0  0  0  0  0  0  0  0  0  0  0  0
    3.7522   -1.8197    2.3859 H   0  0  0  0  0  0  0  0  0  0  0  0
    4.0850   -2.7778    0.1002 H   0  0  0  0  0  0  0  0  0  0  0  0
   -0.1324    1.4671    2.3609 H   0  0  0  0  0  0  0  0  0  0  0  0
   -1.7756   -0.2112    2.9802 H   0  0  0  0  0  0  0  0  0  0  0  0
   -4.8026   -2.8662    0.9426 H   0  0  0  0  0  0  0  0  0  0  0  0
   -4.7037   -2.4218   -1.5133 H   0  0  0  0  0  0  0  0  0  0  0  0
   -3.0828   -0.7663   -2.3483 H   0  0  0  0  0  0  0  0  0  0  0  0
  1  2  3  0
  2  3  1  0
  3  4  2  0
  4  5  1  0
  5  6  1  0
  6  7  2  0
  6  8  2  0
  6  9  1  0
  9 10  2  0
 10 11  1  0
 11 12  2  0
 12 13  1  0
 13 14  2  0
 14 15  1  0
  4 16  1  0
 16 17  2  0
 17 18  1  0
 18 19  2  0
 19 20  1  0
 20 21  2  0
 21 22  1  0
 22 23  2  0
 23  3  1  0
 14  9  1  0
 23 18  1  0
  5 24  1  0
 10 25  1  0
 11 26  1  0
 12 27  1  0
 16 28  1  0
 17 29  1  0
 20 30  1  0
 21 31  1  0
 22 32  1  0
M  END
$$$$
