Molecule_0
     RDKit          3D

 80 84  0  0  0  0  0  0  0  0999 V2000
    1.9913   -3.5186   -0.8379 C   0  0  0  0  0  0  0  0  0  0  0  0
    1.5946   -3.1987    0.6048 C   0  0  0  0  0  0  0  0  0  0  0  0
    2.5467   -3.8267    1.6213 C   0  0  0  0  0  0  0  0  0  0  0  0
    1.3624   -1.8119    0.9070 O   0  0  0  0  0  0  0  0  0  0  0  0
    2.1264   -0.8827    0.2457 C   0  0  0  0  0  0  0  0  0  0  0  0
    3.4795   -0.7220    0.5399 C   0  0  0  0  0  0  0  0  0  0  0  0
    4.2607    0.2684   -0.0934 C   0  0  0  0  0  0  0  0  0  0  0  0
    5.7358    0.3198    0.2967 C   0  0  0  0  0  0  0  0  0  0  0  0
    6.2406    1.6953    0.7774 C   0  0  0  0  0  0  0  0  0  0  0  0
    7.6783    1.9811    0.3298 C   0  0  0  0  0  0  0  0  0  0  0  0
    8.4992    0.7905    0.5373 N   0  0  0  0  0  0  0  0  0  0  0  0
    9.9223    1.0871    0.4119 C   0  0  0  0  0  0  0  0  0  0  0  0
    8.1097   -0.3171   -0.3485 C   0  0  0  0  0  0  0  0  0  0  0  0
    6.6359   -0.2919   -0.7829 C   0  0  0  0  0  0  0  0  0  0  0  0
    3.6309    1.1050   -1.0412 C   0  0  0  0  0  0  0  0  0  0  0  0
    4.3163    2.2171   -1.7911 C   0  0  0  0  0  0  0  0  0  0  0  0
    2.2427    0.9595   -1.2780 C   0  0  0  0  0  0  0  0  0  0  0  0
    1.4733   -0.0142   -0.6386 C   0  0  0  0  0  0  0  0  0  0  0  0
    0.0957   -0.1795   -0.8565 N   0  0  0  0  0  0  0  0  0  0  0  0
   -0.9160    0.7546   -1.0948 C   0  0  0  0  0  0  0  0  0  0  0  0
   -2.1690    0.2426   -0.8484 N   0  0  0  0  0  0  0  0  0  0  0  0
   -3.2767    1.0289   -0.9028 C   0  0  0  0  0  0  0  0  0  0  0  0
   -4.5304    0.4827   -0.6005 N   0  0  0  0  0  0  0  0  0  0  0  0
   -5.3222    0.7563    0.5490 C   0  0  0  0  0  0  0  0  0  0  0  0
   -4.9160    1.7018    1.5048 C   0  0  0  0  0  0  0  0  0  0  0  0
   -5.6875    1.9688    2.6400 C   0  0  0  0  0  0  0  0  0  0  0  0
   -6.8880    1.2995    2.8410 C   0  0  0  0  0  0  0  0  0  0  0  0
   -7.3268    0.3693    1.9008 C   0  0  0  0  0  0  0  0  0  0  0  0
   -6.5614    0.1059    0.7543 C   0  0  0  0  0  0  0  0  0  0  0  0
   -7.1162   -1.0822   -0.4627 S   0  0  0  0  0  6  0  0  0  0  0  0
   -5.9567   -1.9256   -0.7266 O   0  0  0  0  0  0  0  0  0  0  0  0
   -7.7384   -0.3210   -1.5293 O   0  0  0  0  0  0  0  0  0  0  0  0
   -8.3735   -2.1323    0.2835 C   0  0  0  0  0  0  0  0  0  0  0  0
   -8.4084   -3.4946   -0.4125 C   0  0  0  0  0  0  0  0  0  0  0  0
   -9.7659   -1.5074    0.2021 C   0  0  0  0  0  0  0  0  0  0  0  0
   -2.9869    2.3317   -1.2830 C   0  0  0  0  0  0  0  0  0  0  0  0
   -3.8433    3.3815   -1.4823 C   0  0  0  0  0  0  0  0  0  0  0  0
   -3.0347    4.4160   -1.8571 N   0  0  0  0  0  0  0  0  0  0  0  0
   -1.7233    4.1039   -1.9033 N   0  0  0  0  0  0  0  0  0  0  0  0
   -1.6908    2.8114   -1.5655 C   0  0  0  0  0  0  0  0  0  0  0  0
   -0.6037    2.0200   -1.4670 N   0  0  0  0  0  0  0  0  0  0  0  0
    2.9993   -3.1549   -1.0742 H   0  0  0  0  0  0  0  0  0  0  0  0
    1.9787   -4.6023   -1.0063 H   0  0  0  0  0  0  0  0  0  0  0  0
    1.2966   -3.0521   -1.5428 H   0  0  0  0  0  0  0  0  0  0  0  0
    0.6135   -3.6663    0.7660 H   0  0  0  0  0  0  0  0  0  0  0  0
    2.4854   -4.9192    1.5876 H   0  0  0  0  0  0  0  0  0  0  0  0
    2.3053   -3.4904    2.6360 H   0  0  0  0  0  0  0  0  0  0  0  0
    3.5873   -3.5508    1.4288 H   0  0  0  0  0  0  0  0  0  0  0  0
    3.9342   -1.3614    1.2914 H   0  0  0  0  0  0  0  0  0  0  0  0
    5.8492   -0.3300    1.1755 H   0  0  0  0  0  0  0  0  0  0  0  0
    5.5989    2.5260    0.4672 H   0  0  0  0  0  0  0  0  0  0  0  0
    6.1969    1.7096    1.8772 H   0  0  0  0  0  0  0  0  0  0  0  0
    8.0517    2.8225    0.9256 H   0  0  0  0  0  0  0  0  0  0  0  0
    7.7051    2.2997   -0.7206 H   0  0  0  0  0  0  0  0  0  0  0  0
   10.5222    0.1889    0.6020 H   0  0  0  0  0  0  0  0  0  0  0  0
   10.1780    1.4653   -0.5843 H   0  0  0  0  0  0  0  0  0  0  0  0
   10.2281    1.8308    1.1552 H   0  0  0  0  0  0  0  0  0  0  0  0
    8.3110   -1.2598    0.1772 H   0  0  0  0  0  0  0  0  0  0  0  0
    8.7204   -0.3345   -1.2635 H   0  0  0  0  0  0  0  0  0  0  0  0
    6.5552    0.2715   -1.7200 H   0  0  0  0  0  0  0  0  0  0  0  0
    6.3130   -1.3149   -1.0166 H   0  0  0  0  0  0  0  0  0  0  0  0
    3.8905    2.3229   -2.7950 H   0  0  0  0  0  0  0  0  0  0  0  0
    5.3829    2.0402   -1.9323 H   0  0  0  0  0  0  0  0  0  0  0  0
    4.1869    3.1635   -1.2599 H   0  0  0  0  0  0  0  0  0  0  0  0
    1.7664    1.6271   -1.9909 H   0  0  0  0  0  0  0  0  0  0  0  0
   -0.2998   -0.9430   -0.3189 H   0  0  0  0  0  0  0  0  0  0  0  0
   -4.4417   -0.5341   -0.7025 H   0  0  0  0  0  0  0  0  0  0  0  0
   -3.9715    2.2312    1.4011 H   0  0  0  0  0  0  0  0  0  0  0  0
   -5.3419    2.6990    3.3683 H   0  0  0  0  0  0  0  0  0  0  0  0
   -7.4819    1.5069    3.7292 H   0  0  0  0  0  0  0  0  0  0  0  0
   -8.2696   -0.1231    2.0957 H   0  0  0  0  0  0  0  0  0  0  0  0
   -8.0823   -2.2972    1.3258 H   0  0  0  0  0  0  0  0  0  0  0  0
   -7.4502   -4.0177   -0.3037 H   0  0  0  0  0  0  0  0  0  0  0  0
   -9.1869   -4.1351    0.0210 H   0  0  0  0  0  0  0  0  0  0  0  0
   -8.6082   -3.3903   -1.4865 H   0  0  0  0  0  0  0  0  0  0  0  0
   -9.7923   -0.4904    0.6056 H   0  0  0  0  0  0  0  0  0  0  0  0
  -10.1215   -1.4488   -0.8368 H   0  0  0  0  0  0  0  0  0  0  0  0
  -10.4882   -2.1084    0.7672 H   0  0  0  0  0  0  0  0  0  0  0  0
   -4.9173    3.4838   -1.4009 H   0  0  0  0  0  0  0  0  0  0  0  0
   -3.3096    5.3635   -2.0960 H   0  0  0  0  0  0  0  0  0  0  0  0
  1  2  1  0
  2  3  1  0
  2  4  1  0
  4  5  1  0
  5  6  2  0
  6  7  1  0
  7  8  1  0
  8  9  1  0
  9 10  1  0
 10 11  1  0
 11 12  1  0
 11 13  1  0
 13 14  1  0
  7 15  2  0
 15 16  1  0
 15 17  1  0
 17 18  2  0
 18 19  1  0
 19 20  1  0
 20 21  1  0
 21 22  2  0
 22 23  1  0
 23 24  1  0
 24 25  2  0
 25 26  1  0
 26 27  2  0
 27 28  1  0
 28 29  2  0
 29 30  1  0
 30 31  2  0
 30 32  2  0
 30 33  1  0
 33 34  1  0
 33 35  1  0
 22 36  1  0
 36 37  2  0
 37 38  1  0
 38 39  1  0
 39 40  2  0
 40 41  1  0
 18  5  1  0
 14  8  1  0
 41 20  2  0
 29 24  1  0
 40 36  1  0
  1 42  1  0
  1 43  1  0
  1 44  1  0
  2 45  1  0
  3 46  1  0
  3 47  1  0
  3 48  1  0
  6 49  1  0
  8 50  1  0
  9 51  1  0
  9 52  1  0
 10 53  1  0
 10 54  1  0
 12 55  1  0
 12 56  1  0
 12 57  1  0
 13 58  1  0
 13 59  1  0
 14 60  1  0
 14 61  1  0
 16 62  1  0
 16 63  1  0
 16 64  1  0
 17 65  1  0
 19 66  1  0
 23 67  1  0
 25 68  1  0
 26 69  1  0
 27 70  1  0
 28 71  1  0
 33 72  1  0
 34 73  1  0
 34 74  1  0
 34 75  1  0
 35 76  1  0
 35 77  1  0
 35 78  1  0
 37 79  1  0
 38 80  1  0
M  END
$$$$
Molecule_1
     RDKit          3D

 81 84  0  0  0  0  0  0  0  0999 V2000
   -0.4021    1.6749   -0.0889 C   0  0  0  0  0  0  0  0  0  0  0  0
    0.2736    0.3298   -0.1712 C   0  0  0  0  0  0  0  0  0  0  0  0
   -0.5378   -0.8167   -0.2706 C   0  0  0  0  0  0  0  0  0  0  0  0
   -0.0094   -2.1101   -0.3463 C   0  0  0  0  0  0  0  0  0  0  0  0
   -0.8051   -3.2651   -0.4444 N   0  0  0  0  0  0  0  0  0  0  0  0
   -2.1638   -3.4878   -0.6259 C   0  0  0  0  0  0  0  0  0  0  0  0
   -2.5639   -4.7718   -0.5767 N   0  0  0  0  0  0  0  0  0  0  0  0
   -3.8842   -5.0022   -0.7359 C   0  0  0  0  0  0  0  0  0  0  0  0
   -4.8141   -4.0164   -0.9639 C   0  0  0  0  0  0  0  0  0  0  0  0
   -6.4737   -4.4039   -1.1815 Cl  0  0  0  0  0  0  0  0  0  0  0  0
   -4.3162   -2.7239   -1.0292 C   0  0  0  0  0  0  0  0  0  0  0  0
   -5.2092   -1.6283   -1.1719 N   0  0  0  0  0  0  0  0  0  0  0  0
   -4.8127   -0.2835   -1.3229 C   0  0  0  0  0  0  0  0  0  0  0  0
   -4.0316    0.0830   -2.4336 C   0  0  0  0  0  0  0  0  0  0  0  0
   -3.7146    1.4190   -2.6938 C   0  0  0  0  0  0  0  0  0  0  0  0
   -4.2183    2.4245   -1.8765 C   0  0  0  0  0  0  0  0  0  0  0  0
   -5.0135    2.0833   -0.7859 C   0  0  0  0  0  0  0  0  0  0  0  0
   -5.2874    0.7383   -0.4816 C   0  0  0  0  0  0  0  0  0  0  0  0
   -6.2506    0.3725    0.9794 S   0  0  0  0  0  0  0  0  0  0  0  0
   -6.0541   -1.0259    1.3358 O   0  0  0  0  0  0  0  0  0  0  0  0
   -7.5889    0.8689    0.7035 O   0  0  0  0  0  0  0  0  0  0  0  0
   -5.5646    1.2921    2.3622 C   0  0  0  0  0  0  0  0  0  0  0  0
   -4.0432    1.3844    2.3451 C   0  0  0  0  0  0  0  0  0  0  0  0
   -6.2353    2.6416    2.5840 C   0  0  0  0  0  0  0  0  0  0  0  0
   -3.0036   -2.4658   -0.8502 N   0  0  0  0  0  0  0  0  0  0  0  0
    1.3879   -2.2522   -0.3186 C   0  0  0  0  0  0  0  0  0  0  0  0
    1.8661   -3.5362   -0.4320 O   0  0  0  0  0  0  0  0  0  0  0  0
    3.0843   -3.8495    0.2532 C   0  0  0  0  0  0  0  0  0  0  0  0
    2.8337   -5.1515    1.0067 C   0  0  0  0  0  0  0  0  0  0  0  0
    4.1956   -4.0305   -0.7760 C   0  0  0  0  0  0  0  0  0  0  0  0
    2.2088   -1.1243   -0.2549 C   0  0  0  0  0  0  0  0  0  0  0  0
    1.6735    0.1799   -0.1820 C   0  0  0  0  0  0  0  0  0  0  0  0
    2.6229    1.3737   -0.0958 C   0  0  0  0  0  0  0  0  0  0  0  0
    3.6569    1.4061   -1.2340 C   0  0  0  0  0  0  0  0  0  0  0  0
    4.6390    2.5640   -1.0544 C   0  0  0  0  0  0  0  0  0  0  0  0
    5.3045    2.4868    0.2543 N   0  0  0  0  0  0  0  0  0  0  0  0
    6.3334    3.5303    0.4114 C   0  0  0  0  0  0  0  0  0  0  0  0
    7.5645    3.3116   -0.4813 C   0  0  0  0  0  0  0  0  0  0  0  0
    8.6323    4.1548   -0.0806 O   0  0  0  0  0  0  0  0  0  0  0  0
    4.3147    2.5724    1.3402 C   0  0  0  0  0  0  0  0  0  0  0  0
    3.3228    1.4122    1.2700 C   0  0  0  0  0  0  0  0  0  0  0  0
   -1.4839    1.5706    0.0839 H   0  0  0  0  0  0  0  0  0  0  0  0
   -0.2508    2.2303   -1.0229 H   0  0  0  0  0  0  0  0  0  0  0  0
   -0.0155    2.2575    0.7555 H   0  0  0  0  0  0  0  0  0  0  0  0
   -1.6140   -0.6816   -0.2709 H   0  0  0  0  0  0  0  0  0  0  0  0
   -0.2915   -4.1367   -0.3980 H   0  0  0  0  0  0  0  0  0  0  0  0
   -4.1773   -6.0440   -0.6683 H   0  0  0  0  0  0  0  0  0  0  0  0
   -5.9741   -1.8631   -1.8153 H   0  0  0  0  0  0  0  0  0  0  0  0
   -3.6495   -0.6866   -3.1031 H   0  0  0  0  0  0  0  0  0  0  0  0
   -3.0831    1.6698   -3.5400 H   0  0  0  0  0  0  0  0  0  0  0  0
   -3.9975    3.4699   -2.0943 H   0  0  0  0  0  0  0  0  0  0  0  0
   -5.4019    2.8885   -0.1730 H   0  0  0  0  0  0  0  0  0  0  0  0
   -5.8292    0.6811    3.2327 H   0  0  0  0  0  0  0  0  0  0  0  0
   -3.6763    2.0489    1.5569 H   0  0  0  0  0  0  0  0  0  0  0  0
   -3.6720    1.7679    3.3017 H   0  0  0  0  0  0  0  0  0  0  0  0
   -3.5900    0.3992    2.1965 H   0  0  0  0  0  0  0  0  0  0  0  0
   -5.7328    3.2179    3.3690 H   0  0  0  0  0  0  0  0  0  0  0  0
   -7.2713    2.5000    2.8989 H   0  0  0  0  0  0  0  0  0  0  0  0
   -6.2617    3.2607    1.6862 H   0  0  0  0  0  0  0  0  0  0  0  0
    3.3628   -3.0931    0.9968 H   0  0  0  0  0  0  0  0  0  0  0  0
    2.5009   -5.9476    0.3274 H   0  0  0  0  0  0  0  0  0  0  0  0
    3.7293   -5.4857    1.5318 H   0  0  0  0  0  0  0  0  0  0  0  0
    2.0448   -5.0021    1.7511 H   0  0  0  0  0  0  0  0  0  0  0  0
    4.4261   -3.0899   -1.2774 H   0  0  0  0  0  0  0  0  0  0  0  0
    5.1118   -4.3961   -0.3066 H   0  0  0  0  0  0  0  0  0  0  0  0
    3.8934   -4.7359   -1.5574 H   0  0  0  0  0  0  0  0  0  0  0  0
    3.2878   -1.2434   -0.2897 H   0  0  0  0  0  0  0  0  0  0  0  0
    2.0389    2.2995   -0.1954 H   0  0  0  0  0  0  0  0  0  0  0  0
    4.2258    0.4738   -1.2963 H   0  0  0  0  0  0  0  0  0  0  0  0
    3.1437    1.5116   -2.1968 H   0  0  0  0  0  0  0  0  0  0  0  0
    4.1151    3.5258   -1.1776 H   0  0  0  0  0  0  0  0  0  0  0  0
    5.3689    2.4886   -1.8696 H   0  0  0  0  0  0  0  0  0  0  0  0
    5.9223    4.5350    0.2272 H   0  0  0  0  0  0  0  0  0  0  0  0
    6.6776    3.5377    1.4543 H   0  0  0  0  0  0  0  0  0  0  0  0
    7.3400    3.5439   -1.5276 H   0  0  0  0  0  0  0  0  0  0  0  0
    7.9109    2.2765   -0.4300 H   0  0  0  0  0  0  0  0  0  0  0  0
    8.9281    3.8516    0.7981 H   0  0  0  0  0  0  0  0  0  0  0  0
    3.7670    3.5256    1.3056 H   0  0  0  0  0  0  0  0  0  0  0  0
    4.8188    2.5220    2.3153 H   0  0  0  0  0  0  0  0  0  0  0  0
    3.8614    0.4814    1.4623 H   0  0  0  0  0  0  0  0  0  0  0  0
    2.5807    1.5122    2.0738 H   0  0  0  0  0  0  0  0  0  0  0  0
  1  2  1  0
  2  3  2  0
  3  4  1  0
  4  5  1  0
  5  6  1  0
  6  7  2  0
  7  8  1  0
  8  9  2  0
  9 10  1  0
  9 11  1  0
 11 12  1  0
 12 13  1  0
 13 14  2  0
 14 15  1  0
 15 16  2  0
 16 17  1  0
 17 18  2  0
 18 19  1  0
 19 20  2  0
 19 21  2  0
 19 22  1  0
 22 23  1  0
 22 24  1  0
 11 25  2  0
  4 26  2  0
 26 27  1  0
 27 28  1  0
 28 29  1  0
 28 30  1  0
 26 31  1  0
 31 32  2  0
 32 33  1  0
 33 34  1  0
 34 35  1  0
 35 36  1  0
 36 37  1  0
 37 38  1  0
 38 39  1  0
 36 40  1  0
 40 41  1  0
 32  2  1  0
 41 33  1  0
 25  6  1  0
 18 13  1  0
  1 42  1  0
  1 43  1  0
  1 44  1  0
  3 45  1  0
  5 46  1  0
  8 47  1  0
 12 48  1  0
 14 49  1  0
 15 50  1  0
 16 51  1  0
 17 52  1  0
 22 53  1  0
 23 54  1  0
 23 55  1  0
 23 56  1  0
 24 57  1  0
 24 58  1  0
 24 59  1  0
 28 60  1  0
 29 61  1  0
 29 62  1  0
 29 63  1  0
 30 64  1  0
 30 65  1  0
 30 66  1  0
 31 67  1  0
 33 68  1  0
 34 69  1  0
 34 70  1  0
 35 71  1  0
 35 72  1  0
 37 73  1  0
 37 74  1  0
 38 75  1  0
 38 76  1  0
 39 77  1  0
 40 78  1  0
 40 79  1  0
 41 80  1  0
 41 81  1  0
M  END
$$$$
Molecule_2
     RDKit          3D

 74 77  0  0  0  0  0  0  0  0999 V2000
   -0.6153    2.3255    0.3304 C   0  0  0  0  0  0  0  0  0  0  0  0
   -1.3252    1.0001    0.3605 C   0  0  0  0  0  0  0  0  0  0  0  0
   -0.5342   -0.1654    0.4711 C   0  0  0  0  0  0  0  0  0  0  0  0
   -1.0921   -1.4489    0.4804 C   0  0  0  0  0  0  0  0  0  0  0  0
   -0.3483   -2.6284    0.6051 N   0  0  0  0  0  0  0  0  0  0  0  0
    1.0021   -2.9108    0.7316 C   0  0  0  0  0  0  0  0  0  0  0  0
    1.2977   -4.1854    1.0374 N   0  0  0  0  0  0  0  0  0  0  0  0
    2.6001   -4.5015    1.1660 C   0  0  0  0  0  0  0  0  0  0  0  0
    3.6206   -3.5980    0.9905 C   0  0  0  0  0  0  0  0  0  0  0  0
    5.2535   -4.0885    1.1616 Cl  0  0  0  0  0  0  0  0  0  0  0  0
    3.2367   -2.3069    0.6702 C   0  0  0  0  0  0  0  0  0  0  0  0
    4.2050   -1.3142    0.4392 N   0  0  0  0  0  0  0  0  0  0  0  0
    4.3709   -0.4692   -0.6791 C   0  0  0  0  0  0  0  0  0  0  0  0
    3.5826   -0.6242   -1.8338 C   0  0  0  0  0  0  0  0  0  0  0  0
    3.7641    0.1870   -2.9600 C   0  0  0  0  0  0  0  0  0  0  0  0
    4.7289    1.1906   -2.9500 C   0  0  0  0  0  0  0  0  0  0  0  0
    5.4921    1.4021   -1.8048 C   0  0  0  0  0  0  0  0  0  0  0  0
    5.2853    0.6022   -0.6665 C   0  0  0  0  0  0  0  0  0  0  0  0
    6.2636    0.9594    0.7817 S   0  0  0  0  0  0  0  0  0  0  0  0
    6.3964   -0.2817    1.5273 O   0  0  0  0  0  0  0  0  0  0  0  0
    7.4622    1.6431    0.3321 O   0  0  0  0  0  0  0  0  0  0  0  0
    5.2968    2.1167    1.7597 C   0  0  0  0  0  0  0  0  0  0  0  0
    5.0757    3.4381    1.0286 C   0  0  0  0  0  0  0  0  0  0  0  0
    3.9688    1.5319    2.2331 C   0  0  0  0  0  0  0  0  0  0  0  0
    1.9389   -1.9711    0.5340 N   0  0  0  0  0  0  0  0  0  0  0  0
   -2.4811   -1.5420    0.3144 C   0  0  0  0  0  0  0  0  0  0  0  0
   -3.0573   -2.7898    0.3486 O   0  0  0  0  0  0  0  0  0  0  0  0
   -3.6533   -3.1667   -0.9027 C   0  0  0  0  0  0  0  0  0  0  0  0
   -4.9513   -3.8996   -0.5714 C   0  0  0  0  0  0  0  0  0  0  0  0
   -2.6939   -4.0917   -1.6436 C   0  0  0  0  0  0  0  0  0  0  0  0
   -3.2869   -0.4045    0.2276 C   0  0  0  0  0  0  0  0  0  0  0  0
   -2.7303    0.8891    0.2620 C   0  0  0  0  0  0  0  0  0  0  0  0
   -3.6376    2.1124    0.1635 C   0  0  0  0  0  0  0  0  0  0  0  0
   -4.1940    2.3168   -1.2624 C   0  0  0  0  0  0  0  0  0  0  0  0
   -5.6560    1.9003   -1.3768 C   0  0  0  0  0  0  0  0  0  0  0  0
   -6.5391    2.5894   -0.4349 N   0  0  0  0  0  0  0  0  0  0  0  0
   -5.8910    3.0397    0.7975 C   0  0  0  0  0  0  0  0  0  0  0  0
   -4.7545    2.1165    1.2266 C   0  0  0  0  0  0  0  0  0  0  0  0
   -0.7921    2.8280   -0.6222 H   0  0  0  0  0  0  0  0  0  0  0  0
    0.4675    2.2021    0.4342 H   0  0  0  0  0  0  0  0  0  0  0  0
   -0.9373    2.9658    1.1539 H   0  0  0  0  0  0  0  0  0  0  0  0
    0.5480   -0.0530    0.5529 H   0  0  0  0  0  0  0  0  0  0  0  0
   -0.9108   -3.4549    0.7769 H   0  0  0  0  0  0  0  0  0  0  0  0
    2.7940   -5.5411    1.4196 H   0  0  0  0  0  0  0  0  0  0  0  0
    5.0466   -1.4323    1.0127 H   0  0  0  0  0  0  0  0  0  0  0  0
    2.8260   -1.4040   -1.8841 H   0  0  0  0  0  0  0  0  0  0  0  0
    3.1584    0.0222   -3.8488 H   0  0  0  0  0  0  0  0  0  0  0  0
    4.8872    1.8098   -3.8305 H   0  0  0  0  0  0  0  0  0  0  0  0
    6.2387    2.1953   -1.8038 H   0  0  0  0  0  0  0  0  0  0  0  0
    5.9232    2.3096    2.6403 H   0  0  0  0  0  0  0  0  0  0  0  0
    4.4426    3.3086    0.1438 H   0  0  0  0  0  0  0  0  0  0  0  0
    4.5922    4.1697    1.6889 H   0  0  0  0  0  0  0  0  0  0  0  0
    6.0307    3.8573    0.6939 H   0  0  0  0  0  0  0  0  0  0  0  0
    3.4858    2.2073    2.9456 H   0  0  0  0  0  0  0  0  0  0  0  0
    4.1103    0.5722    2.7387 H   0  0  0  0  0  0  0  0  0  0  0  0
    3.2735    1.3761    1.4011 H   0  0  0  0  0  0  0  0  0  0  0  0
   -3.8780   -2.3068   -1.5431 H   0  0  0  0  0  0  0  0  0  0  0  0
   -5.4594   -4.2494   -1.4770 H   0  0  0  0  0  0  0  0  0  0  0  0
   -5.6343   -3.2378   -0.0249 H   0  0  0  0  0  0  0  0  0  0  0  0
   -4.7636   -4.7619    0.0766 H   0  0  0  0  0  0  0  0  0  0  0  0
   -2.4002   -4.9392   -1.0142 H   0  0  0  0  0  0  0  0  0  0  0  0
   -3.1429   -4.4790   -2.5627 H   0  0  0  0  0  0  0  0  0  0  0  0
   -1.7746   -3.5571   -1.9021 H   0  0  0  0  0  0  0  0  0  0  0  0
   -4.3643   -0.5422    0.1550 H   0  0  0  0  0  0  0  0  0  0  0  0
   -3.0361    3.0060    0.3713 H   0  0  0  0  0  0  0  0  0  0  0  0
   -4.1199    3.3859   -1.5173 H   0  0  0  0  0  0  0  0  0  0  0  0
   -3.5921    1.7848   -2.0099 H   0  0  0  0  0  0  0  0  0  0  0  0
   -5.7484    0.8207   -1.2160 H   0  0  0  0  0  0  0  0  0  0  0  0
   -6.0150    2.0801   -2.3957 H   0  0  0  0  0  0  0  0  0  0  0  0
   -6.9964    3.3795   -0.8882 H   0  0  0  0  0  0  0  0  0  0  0  0
   -5.5064    4.0578    0.6582 H   0  0  0  0  0  0  0  0  0  0  0  0
   -6.6492    3.0880    1.5871 H   0  0  0  0  0  0  0  0  0  0  0  0
   -5.1666    1.1148    1.3997 H   0  0  0  0  0  0  0  0  0  0  0  0
   -4.3381    2.4445    2.1863 H   0  0  0  0  0  0  0  0  0  0  0  0
  1  2  1  0
  2  3  2  0
  3  4  1  0
  4  5  1  0
  5  6  1  0
  6  7  2  0
  7  8  1  0
  8  9  2  0
  9 10  1  0
  9 11  1  0
 11 12  1  0
 12 13  1  0
 13 14  2  0
 14 15  1  0
 15 16  2  0
 16 17  1  0
 17 18  2  0
 18 19  1  0
 19 20  2  0
 19 21  2  0
 19 22  1  0
 22 23  1  0
 22 24  1  0
 11 25  2  0
  4 26  2  0
 26 27  1  0
 27 28  1  0
 28 29  1  0
 28 30  1  0
 26 31  1  0
 31 32  2  0
 32 33  1  0
 33 34  1  0
 34 35  1  0
 35 36  1  0
 36 37  1  0
 37 38  1  0
 32  2  1  0
 38 33  1  0
 25  6  1  0
 18 13  1  0
  1 39  1  0
  1 40  1  0
  1 41  1  0
  3 42  1  0
  5 43  1  0
  8 44  1  0
 12 45  1  0
 14 46  1  0
 15 47  1  0
 16 48  1  0
 17 49  1  0
 22 50  1  0
 23 51  1  0
 23 52  1  0
 23 53  1  0
 24 54  1  0
 24 55  1  0
 24 56  1  0
 28 57  1  0
 29 58  1  0
 29 59  1  0
 29 60  1  0
 30 61  1  0
 30 62  1  0
 30 63  1  0
 31 64  1  0
 33 65  1  0
 34 66  1  0
 34 67  1  0
 35 68  1  0
 35 69  1  0
 36 70  1  0
 37 71  1  0
 37 72  1  0
 38 73  1  0
 38 74  1  0
M  END
$$$$
Molecule_3
     RDKit          3D

 64 66  0  0  0  0  0  0  0  0999 V2000
    3.3392    0.9782   -4.2902 C   0  0  0  0  0  0  0  0  0  0  0  0
    4.4363    1.2875   -3.2809 C   0  0  0  0  0  0  0  0  0  0  0  0
    4.1631    0.6596   -1.9385 C   0  0  0  0  0  0  0  0  0  0  0  0
    3.3420    1.3071   -1.0070 C   0  0  0  0  0  0  0  0  0  0  0  0
    3.0828    0.7270    0.2369 C   0  0  0  0  0  0  0  0  0  0  0  0
    3.6399   -0.5116    0.5731 C   0  0  0  0  0  0  0  0  0  0  0  0
    3.3427   -1.1512    1.9096 C   0  0  0  0  0  0  0  0  0  0  0  0
    2.0403   -1.9524    1.8822 C   0  0  0  0  0  0  0  0  0  0  0  0
    0.8029   -1.0960    2.1260 C   0  0  0  0  0  0  0  0  0  0  0  0
    0.8865   -0.0229    2.7252 O   0  0  0  0  0  0  0  0  0  0  0  0
   -0.4226   -1.6065    1.7043 N   0  0  0  0  0  0  0  0  0  0  0  0
   -0.6178   -2.9701    1.2113 C   0  0  0  0  0  0  0  0  0  0  0  0
   -0.8826   -3.0778   -0.2722 C   0  0  0  0  0  0  0  0  0  0  0  0
   -0.2398   -2.2533   -1.2076 C   0  0  0  0  0  0  0  0  0  0  0  0
   -0.4697   -2.4137   -2.5749 C   0  0  0  0  0  0  0  0  0  0  0  0
   -1.3373   -3.4050   -3.0271 C   0  0  0  0  0  0  0  0  0  0  0  0
   -1.9742   -4.2407   -2.1135 C   0  0  0  0  0  0  0  0  0  0  0  0
   -1.7425   -4.0832   -0.7447 C   0  0  0  0  0  0  0  0  0  0  0  0
   -1.6313   -0.7637    1.8284 C   0  0  1  0  0  0  0  0  0  0  0  0
   -1.9453   -0.4111    3.2856 C   0  0  0  0  0  0  0  0  0  0  0  0
   -1.5931    0.4818    0.8972 C   0  0  0  0  0  0  0  0  0  0  0  0
   -0.6624    0.7446    0.1398 O   0  0  0  0  0  0  0  0  0  0  0  0
   -2.7459    1.2533    0.9335 N   0  0  0  0  0  0  0  0  0  0  0  0
   -2.8522    2.4835    0.1618 C   0  0  0  0  0  0  0  0  0  0  0  0
   -4.3116    2.9061    0.0068 C   0  0  0  0  0  0  0  0  0  0  0  0
   -4.6006    3.6683    1.2913 C   0  0  0  0  0  0  0  0  0  0  0  0
   -3.3241    4.4584    1.5446 C   0  0  0  0  0  0  0  0  0  0  0  0
   -2.1919    3.6626    0.8888 C   0  0  0  0  0  0  0  0  0  0  0  0
    4.4463   -1.1687   -0.3654 C   0  0  0  0  0  0  0  0  0  0  0  0
    4.7047   -0.5892   -1.6104 C   0  0  0  0  0  0  0  0  0  0  0  0
    3.2394   -0.1030   -4.4527 H   0  0  0  0  0  0  0  0  0  0  0  0
    3.5669    1.4458   -5.2537 H   0  0  0  0  0  0  0  0  0  0  0  0
    2.3687    1.3570   -3.9539 H   0  0  0  0  0  0  0  0  0  0  0  0
    5.3997    0.9319   -3.6680 H   0  0  0  0  0  0  0  0  0  0  0  0
    4.5422    2.3741   -3.1598 H   0  0  0  0  0  0  0  0  0  0  0  0
    2.8898    2.2688   -1.2412 H   0  0  0  0  0  0  0  0  0  0  0  0
    2.4305    1.2473    0.9372 H   0  0  0  0  0  0  0  0  0  0  0  0
    4.1678   -1.8324    2.1572 H   0  0  0  0  0  0  0  0  0  0  0  0
    3.3462   -0.3855    2.6959 H   0  0  0  0  0  0  0  0  0  0  0  0
    1.9651   -2.4846    0.9291 H   0  0  0  0  0  0  0  0  0  0  0  0
    2.0644   -2.6940    2.6900 H   0  0  0  0  0  0  0  0  0  0  0  0
   -1.4654   -3.3843    1.7726 H   0  0  0  0  0  0  0  0  0  0  0  0
    0.2356   -3.6075    1.4589 H   0  0  0  0  0  0  0  0  0  0  0  0
    0.4376   -1.4634   -0.8860 H   0  0  0  0  0  0  0  0  0  0  0  0
    0.0367   -1.7655   -3.2874 H   0  0  0  0  0  0  0  0  0  0  0  0
   -1.5133   -3.5263   -4.0934 H   0  0  0  0  0  0  0  0  0  0  0  0
   -2.6513   -5.0156   -2.4667 H   0  0  0  0  0  0  0  0  0  0  0  0
   -2.2402   -4.7564   -0.0502 H   0  0  0  0  0  0  0  0  0  0  0  0
   -2.4746   -1.3644    1.4580 H   0  0  0  0  0  0  0  0  0  0  0  0
   -2.9962   -0.1216    3.4025 H   0  0  0  0  0  0  0  0  0  0  0  0
   -1.3457    0.4327    3.6430 H   0  0  0  0  0  0  0  0  0  0  0  0
   -1.7663   -1.2663    3.9470 H   0  0  0  0  0  0  0  0  0  0  0  0
   -3.3955    1.1179    1.6953 H   0  0  0  0  0  0  0  0  0  0  0  0
   -2.3860    2.3125   -0.8147 H   0  0  0  0  0  0  0  0  0  0  0  0
   -4.4180    3.5795   -0.8528 H   0  0  0  0  0  0  0  0  0  0  0  0
   -4.9936    2.0616   -0.1332 H   0  0  0  0  0  0  0  0  0  0  0  0
   -5.4783    4.3160    1.1986 H   0  0  0  0  0  0  0  0  0  0  0  0
   -4.7814    2.9713    2.1181 H   0  0  0  0  0  0  0  0  0  0  0  0
   -3.1505    4.6176    2.6141 H   0  0  0  0  0  0  0  0  0  0  0  0
   -3.3981    5.4460    1.0720 H   0  0  0  0  0  0  0  0  0  0  0  0
   -1.6771    4.3066    0.1669 H   0  0  0  0  0  0  0  0  0  0  0  0
   -1.4492    3.3446    1.6266 H   0  0  0  0  0  0  0  0  0  0  0  0
    4.8771   -2.1408   -0.1356 H   0  0  0  0  0  0  0  0  0  0  0  0
    5.3312   -1.1204   -2.3231 H   0  0  0  0  0  0  0  0  0  0  0  0
  1  2  1  0
  2  3  1  0
  3  4  2  0
  4  5  1  0
  5  6  2  0
  6  7  1  0
  7  8  1  0
  8  9  1  0
  9 10  2  0
  9 11  1  0
 11 12  1  0
 12 13  1  0
 13 14  2  0
 14 15  1  0
 15 16  2  0
 16 17  1  0
 17 18  2  0
 11 19  1  0
 19 20  1  0
 19 21  1  0
 21 22  2  0
 21 23  1  0
 23 24  1  0
 24 25  1  0
 25 26  1  0
 26 27  1  0
 27 28  1  0
  6 29  1  0
 29 30  2  0
 30  3  1  0
 18 13  1  0
 28 24  1  0
  1 31  1  0
  1 32  1  0
  1 33  1  0
  2 34  1  0
  2 35  1  0
  4 36  1  0
  5 37  1  0
  7 38  1  0
  7 39  1  0
  8 40  1  0
  8 41  1  0
 12 42  1  0
 12 43  1  0
 14 44  1  0
 15 45  1  0
 16 46  1  0
 17 47  1  0
 18 48  1  0
 19 49  1  6
 20 50  1  0
 20 51  1  0
 20 52  1  0
 23 53  1  0
 24 54  1  0
 25 55  1  0
 25 56  1  0
 26 57  1  0
 26 58  1  0
 27 59  1  0
 27 60  1  0
 28 61  1  0
 28 62  1  0
 29 63  1  0
 30 64  1  0
M  END
$$$$
Molecule_4
     RDKit          3D

 58 61  0  0  0  0  0  0  0  0999 V2000
    7.7561   -0.9335    1.5351 C   0  0  0  0  0  0  0  0  0  0  0  0
    7.1506   -0.7959    0.1668 C   0  0  0  0  0  0  0  0  0  0  0  0
    7.9365   -0.8902   -0.9655 C   0  0  0  0  0  0  0  0  0  0  0  0
    7.2853   -0.7615   -2.1776 C   0  0  0  0  0  0  0  0  0  0  0  0
    8.0604   -0.8187   -3.4620 C   0  0  0  0  0  0  0  0  0  0  0  0
    5.9550   -0.5461   -2.2611 N   0  0  0  0  0  0  0  0  0  0  0  0
    5.2624   -0.4448   -1.1092 C   0  0  0  0  0  0  0  0  0  0  0  0
    3.8954   -0.2446   -1.2642 N   0  0  0  0  0  0  0  0  0  0  0  0
    2.9016    0.1750   -0.3802 C   0  0  0  0  0  0  0  0  0  0  0  0
    1.5630    0.1107   -0.7746 C   0  0  0  0  0  0  0  0  0  0  0  0
    0.5370    0.4838    0.0994 C   0  0  0  0  0  0  0  0  0  0  0  0
    0.8589    0.9331    1.3740 C   0  0  0  0  0  0  0  0  0  0  0  0
   -0.1801    1.4145    2.3721 C   0  0  1  0  0  0  0  0  0  0  0  0
   -0.6656    2.8377    2.0637 C   0  0  0  0  0  0  0  0  0  0  0  0
   -1.7560    2.8727    0.9978 C   0  0  0  0  0  0  0  0  0  0  0  0
   -2.8936    1.9087    1.3211 C   0  0  0  0  0  0  0  0  0  0  0  0
   -2.4230    0.5466    1.5872 N   0  0  0  0  0  0  0  0  0  0  0  0
   -3.2965   -0.5450    1.5368 C   0  0  0  0  0  0  0  0  0  0  0  0
   -3.1933   -1.5286    2.2645 O   0  0  0  0  0  0  0  0  0  0  0  0
   -4.3636   -0.4861    0.5068 C   0  0  0  0  0  0  0  0  0  0  0  0
   -5.5127   -1.1548    0.7069 C   0  0  0  0  0  0  0  0  0  0  0  0
   -6.6221   -1.2361   -0.2586 C   0  0  0  0  0  0  0  0  0  0  0  0
   -6.9268   -0.2077   -1.1637 C   0  0  0  0  0  0  0  0  0  0  0  0
   -8.0205   -0.3217   -2.0246 C   0  0  0  0  0  0  0  0  0  0  0  0
   -8.8253   -1.4602   -1.9932 C   0  0  0  0  0  0  0  0  0  0  0  0
   -8.5394   -2.4846   -1.0944 C   0  0  0  0  0  0  0  0  0  0  0  0
   -7.4469   -2.3708   -0.2336 C   0  0  0  0  0  0  0  0  0  0  0  0
   -1.3473    0.4370    2.5785 C   0  0  0  0  0  0  0  0  0  0  0  0
    2.1457    0.9862    1.7946 N   0  0  0  0  0  0  0  0  0  0  0  0
    3.1175    0.5881    0.9293 C   0  0  0  0  0  0  0  0  0  0  0  0
    5.8253   -0.5647    0.1011 N   0  0  0  0  0  0  0  0  0  0  0  0
    8.4808   -1.7537    1.5580 H   0  0  0  0  0  0  0  0  0  0  0  0
    6.9822   -1.1566    2.2774 H   0  0  0  0  0  0  0  0  0  0  0  0
    8.2577    0.0006    1.8223 H   0  0  0  0  0  0  0  0  0  0  0  0
    9.0040   -1.0597   -0.9070 H   0  0  0  0  0  0  0  0  0  0  0  0
    8.7952   -0.0043   -3.4832 H   0  0  0  0  0  0  0  0  0  0  0  0
    8.5851   -1.7774   -3.5555 H   0  0  0  0  0  0  0  0  0  0  0  0
    7.3959   -0.7042   -4.3267 H   0  0  0  0  0  0  0  0  0  0  0  0
    3.6762   -0.2135   -2.2494 H   0  0  0  0  0  0  0  0  0  0  0  0
    1.2998   -0.2435   -1.7654 H   0  0  0  0  0  0  0  0  0  0  0  0
   -0.4905    0.4158   -0.2370 H   0  0  0  0  0  0  0  0  0  0  0  0
    0.3459    1.4656    3.3384 H   0  0  0  0  0  0  0  0  0  0  0  0
    0.1704    3.4822    1.7633 H   0  0  0  0  0  0  0  0  0  0  0  0
   -1.0757    3.2701    2.9831 H   0  0  0  0  0  0  0  0  0  0  0  0
   -2.1546    3.8932    0.9139 H   0  0  0  0  0  0  0  0  0  0  0  0
   -1.3278    2.6278    0.0145 H   0  0  0  0  0  0  0  0  0  0  0  0
   -3.6077    1.9233    0.4946 H   0  0  0  0  0  0  0  0  0  0  0  0
   -3.4353    2.2406    2.2157 H   0  0  0  0  0  0  0  0  0  0  0  0
   -4.1470    0.0437   -0.4118 H   0  0  0  0  0  0  0  0  0  0  0  0
   -5.6581   -1.7096    1.6329 H   0  0  0  0  0  0  0  0  0  0  0  0
   -6.3293    0.7006   -1.1977 H   0  0  0  0  0  0  0  0  0  0  0  0
   -8.2489    0.4848   -2.7220 H   0  0  0  0  0  0  0  0  0  0  0  0
   -9.6791   -1.5449   -2.6613 H   0  0  0  0  0  0  0  0  0  0  0  0
   -9.1651   -3.3733   -1.0607 H   0  0  0  0  0  0  0  0  0  0  0  0
   -7.2420   -3.1820    0.4614 H   0  0  0  0  0  0  0  0  0  0  0  0
   -1.8113    0.6278    3.5562 H   0  0  0  0  0  0  0  0  0  0  0  0
   -0.9757   -0.5953    2.6012 H   0  0  0  0  0  0  0  0  0  0  0  0
    4.1170    0.6436    1.3481 H   0  0  0  0  0  0  0  0  0  0  0  0
  1  2  1  0
  2  3  2  0
  3  4  1  0
  4  5  1  0
  4  6  2  0
  6  7  1  0
  7  8  1  0
  8  9  1  0
  9 10  2  0
 10 11  1  0
 11 12  2  0
 12 13  1  0
 13 14  1  0
 14 15  1  0
 15 16  1  0
 16 17  1  0
 17 18  1  0
 18 19  2  0
 18 20  1  0
 20 21  2  0
 21 22  1  0
 22 23  2  0
 23 24  1  0
 24 25  2  0
 25 26  1  0
 26 27  2  0
 17 28  1  0
 12 29  1  0
 29 30  2  0
  7 31  2  0
 31  2  1  0
 30  9  1  0
 28 13  1  0
 27 22  1  0
  1 32  1  0
  1 33  1  0
  1 34  1  0
  3 35  1  0
  5 36  1  0
  5 37  1  0
  5 38  1  0
  8 39  1  0
 10 40  1  0
 11 41  1  0
 13 42  1  1
 14 43  1  0
 14 44  1  0
 15 45  1  0
 15 46  1  0
 16 47  1  0
 16 48  1  0
 20 49  1  0
 21 50  1  0
 23 51  1  0
 24 52  1  0
 25 53  1  0
 26 54  1  0
 27 55  1  0
 28 56  1  0
 28 57  1  0
 30 58  1  0
M  END
$$$$
Molecule_5
     RDKit          3D

 36 38  0  0  0  0  0  0  0  0999 V2000
    7.7121    0.6602    0.0542 C   0  0  0  0  0  0  0  0  0  0  0  0
    6.8786   -0.4221    0.4496 O   0  0  0  0  0  0  0  0  0  0  0  0
    5.5296   -0.2400    0.3275 C   0  0  0  0  0  0  0  0  0  0  0  0
    4.8939    0.9048   -0.1469 C   0  0  0  0  0  0  0  0  0  0  0  0
    3.4946    0.9560   -0.2193 C   0  0  0  0  0  0  0  0  0  0  0  0
    2.7050   -0.1329    0.1797 C   0  0  0  0  0  0  0  0  0  0  0  0
    1.2484   -0.0863    0.1070 C   0  0  0  0  0  0  0  0  0  0  0  0
    0.2320   -0.9605    0.4125 C   0  0  0  0  0  0  0  0  0  0  0  0
   -0.9614   -0.2653    0.0939 C   0  0  0  0  0  0  0  0  0  0  0  0
   -2.3409   -0.7489    0.2362 C   0  0  0  0  0  0  0  0  0  0  0  0
   -2.5678   -1.8510    0.7164 O   0  0  0  0  0  0  0  0  0  0  0  0
   -3.2714    0.1852   -0.1755 N   0  0  0  0  0  0  0  0  0  0  0  0
   -4.6817    0.0916   -0.2184 C   0  0  0  0  0  0  0  0  0  0  0  0
   -5.4074   -1.1050   -0.1244 C   0  0  0  0  0  0  0  0  0  0  0  0
   -4.8038   -2.2971   -0.0626 F   0  0  0  0  0  0  0  0  0  0  0  0
   -6.8010   -1.1166   -0.1647 C   0  0  0  0  0  0  0  0  0  0  0  0
   -7.4894    0.0755   -0.3154 C   0  0  0  0  0  0  0  0  0  0  0  0
   -8.8274    0.0654   -0.3582 F   0  0  0  0  0  0  0  0  0  0  0  0
   -6.8116    1.2790   -0.4383 C   0  0  0  0  0  0  0  0  0  0  0  0
   -5.4147    1.2836   -0.3961 C   0  0  0  0  0  0  0  0  0  0  0  0
   -4.5441    2.9690   -0.5693 Br  0  0  0  0  0  0  0  0  0  0  0  0
   -0.6847    0.9640   -0.3762 N   0  0  0  0  0  0  0  0  0  0  0  0
    0.6943    1.0676   -0.3664 O   0  0  0  0  0  0  0  0  0  0  0  0
    3.3574   -1.2783    0.6549 C   0  0  0  0  0  0  0  0  0  0  0  0
    4.7540   -1.3286    0.7269 C   0  0  0  0  0  0  0  0  0  0  0  0
    8.7515    0.3567    0.2124 H   0  0  0  0  0  0  0  0  0  0  0  0
    7.5266    1.5466    0.6699 H   0  0  0  0  0  0  0  0  0  0  0  0
    7.5890    0.8847   -1.0104 H   0  0  0  0  0  0  0  0  0  0  0  0
    5.4516    1.7777   -0.4696 H   0  0  0  0  0  0  0  0  0  0  0  0
    3.0317    1.8668   -0.5952 H   0  0  0  0  0  0  0  0  0  0  0  0
    0.3145   -1.9614    0.8094 H   0  0  0  0  0  0  0  0  0  0  0  0
   -2.8749    1.0982   -0.3944 H   0  0  0  0  0  0  0  0  0  0  0  0
   -7.3382   -2.0562   -0.0938 H   0  0  0  0  0  0  0  0  0  0  0  0
   -7.3799    2.1956   -0.5653 H   0  0  0  0  0  0  0  0  0  0  0  0
    2.7943   -2.1508    0.9771 H   0  0  0  0  0  0  0  0  0  0  0  0
    5.2410   -2.2274    1.0988 H   0  0  0  0  0  0  0  0  0  0  0  0
  1  2  1  0
  2  3  1  0
  3  4  2  0
  4  5  1  0
  5  6  2  0
  6  7  1  0
  7  8  2  0
  8  9  1  0
  9 10  1  0
 10 11  2  0
 10 12  1  0
 12 13  1  0
 13 14  2  0
 14 15  1  0
 14 16  1  0
 16 17  2  0
 17 18  1  0
 17 19  1  0
 19 20  2  0
 20 21  1  0
  9 22  2  0
 22 23  1  0
  6 24  1  0
 24 25  2  0
 25  3  1  0
 23  7  1  0
 20 13  1  0
  1 26  1  0
  1 27  1  0
  1 28  1  0
  4 29  1  0
  5 30  1  0
  8 31  1  0
 12 32  1  0
 16 33  1  0
 19 34  1  0
 24 35  1  0
 25 36  1  0
M  END
$$$$
Molecule_6
     RDKit          3D

 50 51  0  0  0  0  0  0  0  0999 V2000
   -7.5844   -1.2690   -0.5279 C   0  0  0  0  0  0  0  0  0  0  0  0
   -6.3485   -0.3840   -0.3570 C   0  0  0  0  0  0  0  0  0  0  0  0
   -6.7394    0.9252    0.3320 C   0  0  0  0  0  0  0  0  0  0  0  0
   -5.2676   -1.1457    0.4259 C   0  0  0  0  0  0  0  0  0  0  0  0
   -3.9883   -0.4603    0.4636 N   0  0  0  0  0  0  0  0  0  0  0  0
   -3.0536   -0.4212   -0.5285 C   0  0  0  0  0  0  0  0  0  0  0  0
   -1.9981    0.3346   -0.0515 C   0  0  0  0  0  0  0  0  0  0  0  0
   -0.7699    0.6328   -0.7882 C   0  0  0  0  0  0  0  0  0  0  0  0
   -0.6207    0.1858   -1.9254 O   0  0  0  0  0  0  0  0  0  0  0  0
    0.3157    1.4300   -0.0997 C   0  0  2  0  0  0  0  0  0  0  0  0
   -0.1174    2.8211    0.0558 C   0  0  0  0  0  0  0  0  0  0  0  0
   -0.5061    3.8958    0.2614 N   0  0  0  0  0  0  0  0  0  0  0  0
    1.6402    1.3644   -0.8332 C   0  0  0  0  0  0  0  0  0  0  0  0
    2.0329    2.2393   -1.6004 O   0  0  0  0  0  0  0  0  0  0  0  0
    2.4004    0.2375   -0.5496 N   0  0  0  0  0  0  0  0  0  0  0  0
    3.7271    0.0450   -1.1298 C   0  0  2  0  0  0  0  0  0  0  0  0
    4.0290   -1.4575   -1.2909 C   0  0  0  0  0  0  0  0  0  0  0  0
    4.8193   -2.0262   -0.1204 C   0  0  0  0  0  0  0  0  0  0  0  0
    6.1588   -1.3131    0.0686 C   0  0  0  0  0  0  0  0  0  0  0  0
    6.1840    0.1056   -0.5043 C   0  0  0  0  0  0  0  0  0  0  0  0
    4.8363    0.8284   -0.3705 C   0  0  2  0  0  0  0  0  0  0  0  0
    4.5280    1.1167    1.1063 C   0  0  0  0  0  0  0  0  0  0  0  0
   -2.4101    0.6949    1.2525 C   0  0  0  0  0  0  0  0  0  0  0  0
   -3.6016    0.1889    1.5761 N   0  0  0  0  0  0  0  0  0  0  0  0
   -7.3314   -2.1912   -1.0622 H   0  0  0  0  0  0  0  0  0  0  0  0
   -8.3575   -0.7511   -1.1056 H   0  0  0  0  0  0  0  0  0  0  0  0
   -8.0133   -1.5449    0.4415 H   0  0  0  0  0  0  0  0  0  0  0  0
   -5.9668   -0.1404   -1.3567 H   0  0  0  0  0  0  0  0  0  0  0  0
   -5.8922    1.6167    0.3801 H   0  0  0  0  0  0  0  0  0  0  0  0
   -7.0924    0.7466    1.3533 H   0  0  0  0  0  0  0  0  0  0  0  0
   -7.5411    1.4290   -0.2190 H   0  0  0  0  0  0  0  0  0  0  0  0
   -5.5817   -1.3281    1.4609 H   0  0  0  0  0  0  0  0  0  0  0  0
   -5.0775   -2.1236   -0.0330 H   0  0  0  0  0  0  0  0  0  0  0  0
   -3.2073   -0.9148   -1.4798 H   0  0  0  0  0  0  0  0  0  0  0  0
    0.4774    0.9952    0.8956 H   0  0  0  0  0  0  0  0  0  0  0  0
    2.1147   -0.4091    0.1746 H   0  0  0  0  0  0  0  0  0  0  0  0
    3.6794    0.4539   -2.1486 H   0  0  0  0  0  0  0  0  0  0  0  0
    4.6182   -1.6039   -2.2061 H   0  0  0  0  0  0  0  0  0  0  0  0
    3.1029   -2.0287   -1.4293 H   0  0  0  0  0  0  0  0  0  0  0  0
    4.9951   -3.0976   -0.2708 H   0  0  0  0  0  0  0  0  0  0  0  0
    4.2222   -1.9425    0.7954 H   0  0  0  0  0  0  0  0  0  0  0  0
    6.9562   -1.8950   -0.4092 H   0  0  0  0  0  0  0  0  0  0  0  0
    6.4010   -1.2910    1.1380 H   0  0  0  0  0  0  0  0  0  0  0  0
    6.9833    0.6813   -0.0224 H   0  0  0  0  0  0  0  0  0  0  0  0
    6.4502    0.0543   -1.5686 H   0  0  0  0  0  0  0  0  0  0  0  0
    4.9365    1.8089   -0.8560 H   0  0  0  0  0  0  0  0  0  0  0  0
    4.2934    0.2087    1.6688 H   0  0  0  0  0  0  0  0  0  0  0  0
    5.3839    1.5994    1.5910 H   0  0  0  0  0  0  0  0  0  0  0  0
    3.6802    1.8020    1.2045 H   0  0  0  0  0  0  0  0  0  0  0  0
   -1.8996    1.2971    1.9943 H   0  0  0  0  0  0  0  0  0  0  0  0
  1  2  1  0
  2  3  1  0
  2  4  1  0
  4  5  1  0
  5  6  1  0
  6  7  2  0
  7  8  1  0
  8  9  2  0
  8 10  1  0
 10 11  1  0
 11 12  3  0
 10 13  1  0
 13 14  2  0
 13 15  1  0
 15 16  1  0
 16 17  1  0
 17 18  1  0
 18 19  1  0
 19 20  1  0
 20 21  1  0
 21 22  1  0
  7 23  1  0
 23 24  2  0
 24  5  1  0
 21 16  1  0
  1 25  1  0
  1 26  1  0
  1 27  1  0
  2 28  1  0
  3 29  1  0
  3 30  1  0
  3 31  1  0
  4 32  1  0
  4 33  1  0
  6 34  1  0
 10 35  1  1
 15 36  1  0
 16 37  1  6
 17 38  1  0
 17 39  1  0
 18 40  1  0
 18 41  1  0
 19 42  1  0
 19 43  1  0
 20 44  1  0
 20 45  1  0
 21 46  1  6
 22 47  1  0
 22 48  1  0
 22 49  1  0
 23 50  1  0
M  END
$$$$
Molecule_7
     RDKit          3D

 35 37  0  0  0  0  0  0  0  0999 V2000
    4.4517   -1.3599    2.2443 O   0  0  0  0  0  0  0  0  0  0  0  0
    3.9929   -0.7182    1.2988 C   0  0  0  0  0  0  0  0  0  0  0  0
    2.6070   -0.9969    0.7247 C   0  0  0  0  0  0  0  0  0  0  0  0
    1.7338   -2.3261    1.6045 S   0  0  0  0  0  0  0  0  0  0  0  0
    0.2629   -2.3424    0.7184 C   0  0  0  0  0  0  0  0  0  0  0  0
   -0.0501   -1.6441   -0.3428 N   0  0  0  0  0  0  0  0  0  0  0  0
   -1.3424   -2.0477   -0.6008 C   0  0  0  0  0  0  0  0  0  0  0  0
   -2.1417   -1.5025   -1.7416 C   0  0  0  0  0  0  0  0  0  0  0  0
   -2.2747   -0.0729   -1.7250 O   0  0  0  0  0  0  0  0  0  0  0  0
   -3.2243    0.4864   -0.9172 C   0  0  0  0  0  0  0  0  0  0  0  0
   -4.0792   -0.1917   -0.0470 C   0  0  0  0  0  0  0  0  0  0  0  0
   -5.0057    0.5194    0.7250 C   0  0  0  0  0  0  0  0  0  0  0  0
   -5.0773    1.9070    0.6271 C   0  0  0  0  0  0  0  0  0  0  0  0
   -6.2172    2.7752    1.5783 Cl  0  0  0  0  0  0  0  0  0  0  0  0
   -4.2291    2.5930   -0.2364 C   0  0  0  0  0  0  0  0  0  0  0  0
   -3.3054    1.8806   -1.0047 C   0  0  0  0  0  0  0  0  0  0  0  0
   -1.8180   -2.9809    0.2428 N   0  0  0  0  0  0  0  0  0  0  0  0
   -0.7735   -3.1423    1.0776 N   0  0  0  0  0  0  0  0  0  0  0  0
    4.7343    0.3619    0.6421 C   0  0  0  0  0  0  0  0  0  0  0  0
    4.3712    1.1736   -0.4223 C   0  0  0  0  0  0  0  0  0  0  0  0
    5.3893    2.1159   -0.7649 C   0  0  0  0  0  0  0  0  0  0  0  0
    6.4807    1.9814    0.0510 C   0  0  0  0  0  0  0  0  0  0  0  0
    7.9249    2.9073   -0.0107 Cl  0  0  0  0  0  0  0  0  0  0  0  0
    6.3111    0.7619    1.2064 S   0  0  0  0  0  0  0  0  0  0  0  0
    2.7197   -1.2863   -0.3255 H   0  0  0  0  0  0  0  0  0  0  0  0
    2.0104   -0.0815    0.7976 H   0  0  0  0  0  0  0  0  0  0  0  0
   -3.1197   -1.9893   -1.8391 H   0  0  0  0  0  0  0  0  0  0  0  0
   -1.6012   -1.7442   -2.6647 H   0  0  0  0  0  0  0  0  0  0  0  0
   -4.0538   -1.2708    0.0667 H   0  0  0  0  0  0  0  0  0  0  0  0
   -5.6653   -0.0185    1.4011 H   0  0  0  0  0  0  0  0  0  0  0  0
   -4.2785    3.6751   -0.3174 H   0  0  0  0  0  0  0  0  0  0  0  0
   -2.6414    2.4171   -1.6787 H   0  0  0  0  0  0  0  0  0  0  0  0
   -0.8313   -3.7944    1.8506 H   0  0  0  0  0  0  0  0  0  0  0  0
    3.4230    1.1100   -0.9443 H   0  0  0  0  0  0  0  0  0  0  0  0
    5.3169    2.8447   -1.5629 H   0  0  0  0  0  0  0  0  0  0  0  0
  1  2  2  0
  2  3  1  0
  3  4  1  0
  4  5  1  0
  5  6  2  0
  6  7  1  0
  7  8  1  0
  8  9  1  0
  9 10  1  0
 10 11  2  0
 11 12  1  0
 12 13  2  0
 13 14  1  0
 13 15  1  0
 15 16  2  0
  7 17  2  0
 17 18  1  0
  2 19  1  0
 19 20  2  0
 20 21  1  0
 21 22  2  0
 22 23  1  0
 22 24  1  0
 18  5  1  0
 24 19  1  0
 16 10  1  0
  3 25  1  0
  3 26  1  0
  8 27  1  0
  8 28  1  0
 11 29  1  0
 12 30  1  0
 15 31  1  0
 16 32  1  0
 18 33  1  0
 20 34  1  0
 21 35  1  0
M  END
$$$$
Molecule_8
     RDKit          3D

 40 42  0  0  0  0  0  0  0  0999 V2000
    0.0589   -2.9603    1.8228 C   0  0  0  0  0  0  0  0  0  0  0  0
    0.3849   -1.6433    1.3979 O   0  0  0  0  0  0  0  0  0  0  0  0
   -0.6244   -0.9062    0.8372 C   0  0  0  0  0  0  0  0  0  0  0  0
   -1.9829   -1.2344    0.8694 C   0  0  0  0  0  0  0  0  0  0  0  0
   -2.9519   -0.3896    0.2847 C   0  0  0  0  0  0  0  0  0  0  0  0
   -4.4164   -0.7828    0.3407 C   0  0  0  0  0  0  0  0  0  0  0  0
   -5.4190    0.4179    1.2782 S   0  0  0  0  0  0  0  0  0  0  0  0
   -6.8584    0.3822    0.1829 C   0  0  0  0  0  0  0  0  0  0  0  0
   -6.3469    0.2992   -1.2404 C   0  0  0  0  0  0  0  0  0  0  0  0
   -5.1334   -1.0421   -1.3162 S   0  0  0  0  0  0  0  0  0  0  0  0
   -2.5261    0.8032   -0.3307 C   0  0  0  0  0  0  0  0  0  0  0  0
   -1.1755    1.1445   -0.3659 C   0  0  0  0  0  0  0  0  0  0  0  0
   -0.2420    0.2824    0.2039 C   0  0  0  0  0  0  0  0  0  0  0  0
    1.1027    0.6667    0.1889 O   0  0  0  0  0  0  0  0  0  0  0  0
    1.8190    0.0391   -0.8095 C   0  0  0  0  0  0  0  0  0  0  0  0
    1.3887   -0.6550   -1.7182 O   0  0  0  0  0  0  0  0  0  0  0  0
    3.2567    0.3552   -0.6546 C   0  0  0  0  0  0  0  0  0  0  0  0
    3.7893    1.0659    0.4229 C   0  0  0  0  0  0  0  0  0  0  0  0
    5.1637    1.3086    0.4763 C   0  0  0  0  0  0  0  0  0  0  0  0
    5.9863    0.8313   -0.5479 C   0  0  0  0  0  0  0  0  0  0  0  0
    7.4828    1.1196   -0.4838 C   0  0  0  0  0  0  0  0  0  0  0  0
    8.0094    0.8606    0.7504 F   0  0  0  0  0  0  0  0  0  0  0  0
    8.2347    0.3997   -1.3626 F   0  0  0  0  0  0  0  0  0  0  0  0
    7.7690    2.4313   -0.7306 F   0  0  0  0  0  0  0  0  0  0  0  0
    5.4758    0.1387   -1.6067 N   0  0  0  0  0  0  0  0  0  0  0  0
    4.1364   -0.0857   -1.6329 C   0  0  0  0  0  0  0  0  0  0  0  0
    0.9873   -3.4511    2.1308 H   0  0  0  0  0  0  0  0  0  0  0  0
   -0.3732   -3.5481    1.0060 H   0  0  0  0  0  0  0  0  0  0  0  0
   -0.6082   -2.9372    2.6905 H   0  0  0  0  0  0  0  0  0  0  0  0
   -2.3180   -2.1453    1.3562 H   0  0  0  0  0  0  0  0  0  0  0  0
   -4.5164   -1.7392    0.8647 H   0  0  0  0  0  0  0  0  0  0  0  0
   -7.4592    1.2846    0.3306 H   0  0  0  0  0  0  0  0  0  0  0  0
   -7.4839   -0.4808    0.4364 H   0  0  0  0  0  0  0  0  0  0  0  0
   -7.1648    0.0969   -1.9384 H   0  0  0  0  0  0  0  0  0  0  0  0
   -5.8693    1.2352   -1.5504 H   0  0  0  0  0  0  0  0  0  0  0  0
   -3.2486    1.4772   -0.7861 H   0  0  0  0  0  0  0  0  0  0  0  0
   -0.8564    2.0680   -0.8386 H   0  0  0  0  0  0  0  0  0  0  0  0
    3.1552    1.4316    1.2271 H   0  0  0  0  0  0  0  0  0  0  0  0
    5.5865    1.8623    1.3116 H   0  0  0  0  0  0  0  0  0  0  0  0
    3.7876   -0.6486   -2.4968 H   0  0  0  0  0  0  0  0  0  0  0  0
  1  2  1  0
  2  3  1  0
  3  4  2  0
  4  5  1  0
  5  6  1  0
  6  7  1  0
  7  8  1  0
  8  9  1  0
  9 10  1  0
  5 11  2  0
 11 12  1  0
 12 13  2  0
 13 14  1  0
 14 15  1  0
 15 16  2  0
 15 17  1  0
 17 18  2  0
 18 19  1  0
 19 20  2  0
 20 21  1  0
 21 22  1  0
 21 23  1  0
 21 24  1  0
 20 25  1  0
 25 26  2  0
 13  3  1  0
 26 17  1  0
 10  6  1  0
  1 27  1  0
  1 28  1  0
  1 29  1  0
  4 30  1  0
  6 31  1  0
  8 32  1  0
  8 33  1  0
  9 34  1  0
  9 35  1  0
 11 36  1  0
 12 37  1  0
 18 38  1  0
 19 39  1  0
 26 40  1  0
M  END
$$$$
Molecule_9
     RDKit          3D

 54 57  0  0  0  0  0  0  0  0999 V2000
    3.5846    5.1759   -2.1455 C   0  0  0  0  0  0  0  0  0  0  0  0
    3.0813    3.8587   -1.9172 O   0  0  0  0  0  0  0  0  0  0  0  0
    3.9476    3.0436   -1.2657 C   0  0  0  0  0  0  0  0  0  0  0  0
    5.0706    3.3438   -0.8924 O   0  0  0  0  0  0  0  0  0  0  0  0
    3.3338    1.7084   -1.0337 C   0  0  0  0  0  0  0  0  0  0  0  0
    2.1539    1.3057   -1.6755 C   0  0  0  0  0  0  0  0  0  0  0  0
    1.6135    0.0430   -1.4202 C   0  0  0  0  0  0  0  0  0  0  0  0
    2.2424   -0.8090   -0.5087 C   0  0  0  0  0  0  0  0  0  0  0  0
    1.7505   -2.0655   -0.2507 O   0  0  0  0  0  0  0  0  0  0  0  0
    0.5087   -2.1256    0.3763 C   0  0  0  0  0  0  0  0  0  0  0  0
    0.0440   -1.0430    1.0373 N   0  0  0  0  0  0  0  0  0  0  0  0
   -1.1639   -1.1110    1.6316 C   0  0  0  0  0  0  0  0  0  0  0  0
   -1.6614    0.1552    2.3218 C   0  0  0  0  0  0  0  0  0  0  0  0
   -2.4621    1.0786    1.4739 N   0  0  0  0  0  0  0  0  0  0  0  0
   -1.6530    1.6363    0.3778 C   0  0  0  0  0  0  0  0  0  0  0  0
   -2.4715    2.5888   -0.4961 C   0  0  0  0  0  0  0  0  0  0  0  0
   -3.1103    3.6991    0.3294 C   0  0  0  0  0  0  0  0  0  0  0  0
   -3.8878    3.1061    1.4970 C   0  0  0  0  0  0  0  0  0  0  0  0
   -3.0182    2.1502    2.3135 C   0  0  0  0  0  0  0  0  0  0  0  0
   -1.9587   -2.1904    1.6618 N   0  0  0  0  0  0  0  0  0  0  0  0
   -1.4447   -3.2505    1.0182 C   0  0  0  0  0  0  0  0  0  0  0  0
   -2.3024   -4.7144    0.9533 S   0  0  0  0  0  0  0  0  0  0  0  0
   -1.0770   -5.4775    0.0350 C   0  0  0  0  0  0  0  0  0  0  0  0
   -1.2540   -6.9016   -0.3823 C   0  0  0  0  0  0  0  0  0  0  0  0
   -0.0103   -4.6261   -0.2219 C   0  0  0  0  0  0  0  0  0  0  0  0
    1.2149   -4.9966   -0.9982 C   0  0  0  0  0  0  0  0  0  0  0  0
   -0.2315   -3.3140    0.3560 C   0  0  0  0  0  0  0  0  0  0  0  0
    3.4329   -0.4309    0.1103 C   0  0  0  0  0  0  0  0  0  0  0  0
    3.9741    0.8309   -0.1463 C   0  0  0  0  0  0  0  0  0  0  0  0
    3.9081    5.6399   -1.2081 H   0  0  0  0  0  0  0  0  0  0  0  0
    2.7723    5.7805   -2.5615 H   0  0  0  0  0  0  0  0  0  0  0  0
    4.4044    5.1467   -2.8703 H   0  0  0  0  0  0  0  0  0  0  0  0
    1.6445    1.9645   -2.3748 H   0  0  0  0  0  0  0  0  0  0  0  0
    0.6964   -0.2645   -1.9169 H   0  0  0  0  0  0  0  0  0  0  0  0
   -0.7974    0.6791    2.7518 H   0  0  0  0  0  0  0  0  0  0  0  0
   -2.2780   -0.1751    3.1683 H   0  0  0  0  0  0  0  0  0  0  0  0
   -0.7730    2.1608    0.7694 H   0  0  0  0  0  0  0  0  0  0  0  0
   -1.2957    0.8359   -0.2779 H   0  0  0  0  0  0  0  0  0  0  0  0
   -1.8278    3.0253   -1.2684 H   0  0  0  0  0  0  0  0  0  0  0  0
   -3.2558    2.0233   -1.0174 H   0  0  0  0  0  0  0  0  0  0  0  0
   -2.3299    4.3704    0.7099 H   0  0  0  0  0  0  0  0  0  0  0  0
   -3.7760    4.3009   -0.3003 H   0  0  0  0  0  0  0  0  0  0  0  0
   -4.7668    2.5698    1.1189 H   0  0  0  0  0  0  0  0  0  0  0  0
   -4.2571    3.9115    2.1414 H   0  0  0  0  0  0  0  0  0  0  0  0
   -3.6428    1.7161    3.1036 H   0  0  0  0  0  0  0  0  0  0  0  0
   -2.2166    2.7151    2.8063 H   0  0  0  0  0  0  0  0  0  0  0  0
   -0.4823   -7.5291    0.0759 H   0  0  0  0  0  0  0  0  0  0  0  0
   -2.2294   -7.3048   -0.0915 H   0  0  0  0  0  0  0  0  0  0  0  0
   -1.1697   -6.9899   -1.4710 H   0  0  0  0  0  0  0  0  0  0  0  0
    2.1147   -4.8111   -0.4026 H   0  0  0  0  0  0  0  0  0  0  0  0
    1.2739   -4.4044   -1.9170 H   0  0  0  0  0  0  0  0  0  0  0  0
    1.2186   -6.0540   -1.2799 H   0  0  0  0  0  0  0  0  0  0  0  0
    3.9290   -1.1073    0.7999 H   0  0  0  0  0  0  0  0  0  0  0  0
    4.8907    1.1322    0.3564 H   0  0  0  0  0  0  0  0  0  0  0  0
  1  2  1  0
  2  3  1  0
  3  4  2  0
  3  5  1  0
  5  6  2  0
  6  7  1  0
  7  8  2  0
  8  9  1  0
  9 10  1  0
 10 11  2  0
 11 12  1  0
 12 13  1  0
 13 14  1  0
 14 15  1  0
 15 16  1  0
 16 17  1  0
 17 18  1  0
 18 19  1  0
 12 20  2  0
 20 21  1  0
 21 22  1  0
 22 23  1  0
 23 24  1  0
 23 25  2  0
 25 26  1  0
 25 27  1  0
  8 28  1  0
 28 29  2  0
 29  5  1  0
 27 10  1  0
 19 14  1  0
 27 21  2  0
  1 30  1  0
  1 31  1  0
  1 32  1  0
  6 33  1  0
  7 34  1  0
 13 35  1  0
 13 36  1  0
 15 37  1  0
 15 38  1  0
 16 39  1  0
 16 40  1  0
 17 41  1  0
 17 42  1  0
 18 43  1  0
 18 44  1  0
 19 45  1  0
 19 46  1  0
 24 47  1  0
 24 48  1  0
 24 49  1  0
 26 50  1  0
 26 51  1  0
 26 52  1  0
 28 53  1  0
 29 54  1  0
M  END
$$$$
