Molecule_0
     RDKit          3D

 80 84  0  0  0  0  0  0  0  0999 V2000
   -4.4155   -5.1755   -1.3223 C   0  0  0  0  0  0  0  0  0  0  0  0
   -3.3451   -4.5509   -0.4273 C   0  0  0  0  0  0  0  0  0  0  0  0
   -2.4962   -5.6503    0.2064 C   0  0  0  0  0  0  0  0  0  0  0  0
   -2.4737   -3.7571   -1.2473 O   0  0  0  0  0  0  0  0  0  0  0  0
   -2.5409   -2.3963   -1.0612 C   0  0  0  0  0  0  0  0  0  0  0  0
   -3.7438   -1.7015   -0.9160 C   0  0  0  0  0  0  0  0  0  0  0  0
   -3.7971   -0.2906   -0.7982 C   0  0  0  0  0  0  0  0  0  0  0  0
   -5.2083    0.2998   -0.6988 C   0  0  0  0  0  0  0  0  0  0  0  0
   -5.7535    0.3177    0.7371 C   0  0  0  0  0  0  0  0  0  0  0  0
   -5.7485    1.6969    1.3864 C   0  0  0  0  0  0  0  0  0  0  0  0
   -6.4293    2.6716    0.5281 N   0  0  0  0  0  0  0  0  0  0  0  0
   -6.5831    3.9453    1.2308 C   0  0  0  0  0  0  0  0  0  0  0  0
   -5.6863    2.8598   -0.7209 C   0  0  0  0  0  0  0  0  0  0  0  0
   -5.5559    1.5591   -1.5160 C   0  0  0  0  0  0  0  0  0  0  0  0
   -2.5713    0.4005   -0.7844 C   0  0  0  0  0  0  0  0  0  0  0  0
   -2.4451    1.8862   -0.6252 C   0  0  0  0  0  0  0  0  0  0  0  0
   -1.3596   -0.3188   -0.9516 C   0  0  0  0  0  0  0  0  0  0  0  0
   -1.3242   -1.7033   -1.1273 C   0  0  0  0  0  0  0  0  0  0  0  0
   -0.1517   -2.4462   -1.3237 N   0  0  0  0  0  0  0  0  0  0  0  0
    1.2054   -2.1579   -1.4308 C   0  0  0  0  0  0  0  0  0  0  0  0
    1.6900   -0.9434   -1.0108 N   0  0  0  0  0  0  0  0  0  0  0  0
    3.0202   -0.6287   -1.0872 C   0  0  0  0  0  0  0  0  0  0  0  0
    3.4253    0.6236   -0.5757 N   0  0  0  0  0  0  0  0  0  0  0  0
    4.7383    1.1351   -0.5349 C   0  0  0  0  0  0  0  0  0  0  0  0
    5.3237    1.5354   -1.7515 C   0  0  0  0  0  0  0  0  0  0  0  0
    6.6584    1.9369   -1.8254 C   0  0  0  0  0  0  0  0  0  0  0  0
    7.4484    1.9209   -0.6816 C   0  0  0  0  0  0  0  0  0  0  0  0
    6.8940    1.5355    0.5383 C   0  0  0  0  0  0  0  0  0  0  0  0
    5.5383    1.1797    0.6213 C   0  0  0  0  0  0  0  0  0  0  0  0
    4.8967    0.7529    2.2301 S   0  0  0  0  0  6  0  0  0  0  0  0
    3.4865    0.4347    2.0649 O   0  0  0  0  0  0  0  0  0  0  0  0
    5.8038   -0.2420    2.7800 O   0  0  0  0  0  0  0  0  0  0  0  0
    4.9525    2.2422    3.2425 C   0  0  0  0  0  0  0  0  0  0  0  0
    6.2551    2.3705    4.0251 C   0  0  0  0  0  0  0  0  0  0  0  0
    4.6304    3.5124    2.4606 C   0  0  0  0  0  0  0  0  0  0  0  0
    3.7757   -1.6754   -1.6220 C   0  0  0  0  0  0  0  0  0  0  0  0
    5.1307   -1.7957   -1.7991 C   0  0  0  0  0  0  0  0  0  0  0  0
    5.3128   -3.0485   -2.3243 N   0  0  0  0  0  0  0  0  0  0  0  0
    4.1767   -3.7442   -2.4910 N   0  0  0  0  0  0  0  0  0  0  0  0
    3.2315   -2.9144   -2.0363 C   0  0  0  0  0  0  0  0  0  0  0  0
    1.9190   -3.1865   -1.9467 N   0  0  0  0  0  0  0  0  0  0  0  0
   -3.9593   -5.7422   -2.1404 H   0  0  0  0  0  0  0  0  0  0  0  0
   -5.0352   -4.4087   -1.7893 H   0  0  0  0  0  0  0  0  0  0  0  0
   -5.0672   -5.8485   -0.7520 H   0  0  0  0  0  0  0  0  0  0  0  0
   -3.8030   -3.9768    0.3851 H   0  0  0  0  0  0  0  0  0  0  0  0
   -1.9849   -6.2432   -0.5594 H   0  0  0  0  0  0  0  0  0  0  0  0
   -1.7113   -5.2146    0.8399 H   0  0  0  0  0  0  0  0  0  0  0  0
   -3.1082   -6.3206    0.8239 H   0  0  0  0  0  0  0  0  0  0  0  0
   -4.6756   -2.2576   -0.9290 H   0  0  0  0  0  0  0  0  0  0  0  0
   -5.8253   -0.4667   -1.2024 H   0  0  0  0  0  0  0  0  0  0  0  0
   -5.2276   -0.3972    1.3818 H   0  0  0  0  0  0  0  0  0  0  0  0
   -6.7961   -0.0227    0.7009 H   0  0  0  0  0  0  0  0  0  0  0  0
   -4.7242    2.0121    1.6218 H   0  0  0  0  0  0  0  0  0  0  0  0
   -6.2831    1.6108    2.3410 H   0  0  0  0  0  0  0  0  0  0  0  0
   -5.6187    4.3781    1.5232 H   0  0  0  0  0  0  0  0  0  0  0  0
   -7.1129    4.6672    0.6017 H   0  0  0  0  0  0  0  0  0  0  0  0
   -7.1892    3.8165    2.1355 H   0  0  0  0  0  0  0  0  0  0  0  0
   -4.7029    3.2945   -0.5250 H   0  0  0  0  0  0  0  0  0  0  0  0
   -6.2177    3.5793   -1.3584 H   0  0  0  0  0  0  0  0  0  0  0  0
   -4.8708    1.6901   -2.3610 H   0  0  0  0  0  0  0  0  0  0  0  0
   -6.5446    1.3829   -1.9719 H   0  0  0  0  0  0  0  0  0  0  0  0
   -1.4002    2.1904   -0.5052 H   0  0  0  0  0  0  0  0  0  0  0  0
   -2.9626    2.2179    0.2737 H   0  0  0  0  0  0  0  0  0  0  0  0
   -2.8213    2.4003   -1.5122 H   0  0  0  0  0  0  0  0  0  0  0  0
   -0.4265    0.2378   -0.9687 H   0  0  0  0  0  0  0  0  0  0  0  0
   -0.3280   -3.4025   -1.6230 H   0  0  0  0  0  0  0  0  0  0  0  0
    2.9281    0.6926    0.3185 H   0  0  0  0  0  0  0  0  0  0  0  0
    4.7271    1.5188   -2.6628 H   0  0  0  0  0  0  0  0  0  0  0  0
    7.0877    2.2361   -2.7786 H   0  0  0  0  0  0  0  0  0  0  0  0
    8.4978    2.2031   -0.7415 H   0  0  0  0  0  0  0  0  0  0  0  0
    7.5330    1.4968    1.4145 H   0  0  0  0  0  0  0  0  0  0  0  0
    4.1480    2.0940    3.9754 H   0  0  0  0  0  0  0  0  0  0  0  0
    6.2685    3.2771    4.6470 H   0  0  0  0  0  0  0  0  0  0  0  0
    6.3964    1.5136    4.6963 H   0  0  0  0  0  0  0  0  0  0  0  0
    7.1270    2.4182    3.3638 H   0  0  0  0  0  0  0  0  0  0  0  0
    5.4741    3.8268    1.8369 H   0  0  0  0  0  0  0  0  0  0  0  0
    4.3924    4.3425    3.1381 H   0  0  0  0  0  0  0  0  0  0  0  0
    3.7651    3.3639    1.8018 H   0  0  0  0  0  0  0  0  0  0  0  0
    5.9790   -1.1575   -1.6024 H   0  0  0  0  0  0  0  0  0  0  0  0
    6.1876   -3.4918   -2.5831 H   0  0  0  0  0  0  0  0  0  0  0  0
  1  2  1  0
  2  3  1  0
  2  4  1  0
  4  5  1  0
  5  6  2  0
  6  7  1  0
  7  8  1  0
  8  9  1  0
  9 10  1  0
 10 11  1  0
 11 12  1  0
 11 13  1  0
 13 14  1  0
  7 15  2  0
 15 16  1  0
 15 17  1  0
 17 18  2  0
 18 19  1  0
 19 20  1  0
 20 21  1  0
 21 22  2  0
 22 23  1  0
 23 24  1  0
 24 25  2  0
 25 26  1  0
 26 27  2  0
 27 28  1  0
 28 29  2  0
 29 30  1  0
 30 31  2  0
 30 32  2  0
 30 33  1  0
 33 34  1  0
 33 35  1  0
 22 36  1  0
 36 37  2  0
 37 38  1  0
 38 39  1  0
 39 40  2  0
 40 41  1  0
 18  5  1  0
 14  8  1  0
 41 20  2  0
 29 24  1  0
 40 36  1  0
  1 42  1  0
  1 43  1  0
  1 44  1  0
  2 45  1  0
  3 46  1  0
  3 47  1  0
  3 48  1  0
  6 49  1  0
  8 50  1  0
  9 51  1  0
  9 52  1  0
 10 53  1  0
 10 54  1  0
 12 55  1  0
 12 56  1  0
 12 57  1  0
 13 58  1  0
 13 59  1  0
 14 60  1  0
 14 61  1  0
 16 62  1  0
 16 63  1  0
 16 64  1  0
 17 65  1  0
 19 66  1  0
 23 67  1  0
 25 68  1  0
 26 69  1  0
 27 70  1  0
 28 71  1  0
 33 72  1  0
 34 73  1  0
 34 74  1  0
 34 75  1  0
 35 76  1  0
 35 77  1  0
 35 78  1  0
 37 79  1  0
 38 80  1  0
M  END
$$$$
Molecule_1
     RDKit          3D

 81 84  0  0  0  0  0  0  0  0999 V2000
   -3.2903    0.1496    3.0335 C   0  0  0  0  0  0  0  0  0  0  0  0
   -2.8336    0.4149    1.6272 C   0  0  0  0  0  0  0  0  0  0  0  0
   -1.4563    0.2455    1.3690 C   0  0  0  0  0  0  0  0  0  0  0  0
   -0.9054    0.4455    0.1079 C   0  0  0  0  0  0  0  0  0  0  0  0
    0.4640    0.2679   -0.1694 N   0  0  0  0  0  0  0  0  0  0  0  0
    1.3852   -0.6350    0.3691 C   0  0  0  0  0  0  0  0  0  0  0  0
    1.0599   -1.4641    1.3709 N   0  0  0  0  0  0  0  0  0  0  0  0
    2.0094   -2.3294    1.7863 C   0  0  0  0  0  0  0  0  0  0  0  0
    3.2706   -2.4099    1.2390 C   0  0  0  0  0  0  0  0  0  0  0  0
    4.4218   -3.4754    1.9390 Cl  0  0  0  0  0  0  0  0  0  0  0  0
    3.5272   -1.5212    0.2105 C   0  0  0  0  0  0  0  0  0  0  0  0
    4.7707   -1.3814   -0.4121 N   0  0  0  0  0  0  0  0  0  0  0  0
    5.6362   -2.3219   -1.0055 C   0  0  0  0  0  0  0  0  0  0  0  0
    5.1864   -3.6067   -1.3580 C   0  0  0  0  0  0  0  0  0  0  0  0
    6.0427   -4.5285   -1.9573 C   0  0  0  0  0  0  0  0  0  0  0  0
    7.3600   -4.1809   -2.2311 C   0  0  0  0  0  0  0  0  0  0  0  0
    7.8322   -2.9073   -1.9005 C   0  0  0  0  0  0  0  0  0  0  0  0
    6.9829   -1.9919   -1.2774 C   0  0  0  0  0  0  0  0  0  0  0  0
    7.5370   -0.3511   -0.8267 S   0  0  0  0  0  0  0  0  0  0  0  0
    7.6763   -0.3346    0.6132 O   0  0  0  0  0  0  0  0  0  0  0  0
    6.5884    0.5383   -1.4860 O   0  0  0  0  0  0  0  0  0  0  0  0
    9.1433   -0.0093   -1.5447 C   0  0  0  0  0  0  0  0  0  0  0  0
    9.3830    1.5020   -1.5226 C   0  0  0  0  0  0  0  0  0  0  0  0
   10.2904   -0.7020   -0.8025 C   0  0  0  0  0  0  0  0  0  0  0  0
    2.5900   -0.6453   -0.2265 N   0  0  0  0  0  0  0  0  0  0  0  0
   -1.7534    0.9258   -0.8969 C   0  0  0  0  0  0  0  0  0  0  0  0
   -1.1759    1.1675   -2.1238 O   0  0  0  0  0  0  0  0  0  0  0  0
   -1.3667    2.4989   -2.6474 C   0  0  0  0  0  0  0  0  0  0  0  0
   -0.6906    2.5183   -4.0169 C   0  0  0  0  0  0  0  0  0  0  0  0
   -0.7227    3.5490   -1.7471 C   0  0  0  0  0  0  0  0  0  0  0  0
   -3.1208    1.0875   -0.6776 C   0  0  0  0  0  0  0  0  0  0  0  0
   -3.6845    0.8443    0.5870 C   0  0  0  0  0  0  0  0  0  0  0  0
   -5.1924    1.0308    0.7137 C   0  0  0  0  0  0  0  0  0  0  0  0
   -5.6617    1.9743    1.8303 C   0  0  0  0  0  0  0  0  0  0  0  0
   -7.1760    2.1825    1.7918 C   0  0  0  0  0  0  0  0  0  0  0  0
   -7.9236    1.0336    1.2633 N   0  0  0  0  0  0  0  0  0  0  0  0
   -9.3457    1.0671    1.6500 C   0  0  0  0  0  0  0  0  0  0  0  0
   -9.6838    0.6153    3.0849 C   0  0  0  0  0  0  0  0  0  0  0  0
   -9.6887   -0.8104    3.2097 O   0  0  0  0  0  0  0  0  0  0  0  0
   -7.2595   -0.2461    1.5093 C   0  0  0  0  0  0  0  0  0  0  0  0
   -5.9352   -0.3189    0.7504 C   0  0  0  0  0  0  0  0  0  0  0  0
   -2.5539   -0.4370    3.5853 H   0  0  0  0  0  0  0  0  0  0  0  0
   -3.4241    1.0875    3.5789 H   0  0  0  0  0  0  0  0  0  0  0  0
   -4.2158   -0.4388    3.0518 H   0  0  0  0  0  0  0  0  0  0  0  0
   -0.8078   -0.0734    2.1883 H   0  0  0  0  0  0  0  0  0  0  0  0
    0.6789    0.3716   -1.1489 H   0  0  0  0  0  0  0  0  0  0  0  0
    1.7114   -2.9681    2.6145 H   0  0  0  0  0  0  0  0  0  0  0  0
    4.7666   -0.5074   -0.9464 H   0  0  0  0  0  0  0  0  0  0  0  0
    4.1505   -3.8935   -1.1884 H   0  0  0  0  0  0  0  0  0  0  0  0
    5.6695   -5.5156   -2.2217 H   0  0  0  0  0  0  0  0  0  0  0  0
    8.0260   -4.8988   -2.6998 H   0  0  0  0  0  0  0  0  0  0  0  0
    8.8622   -2.6763   -2.1395 H   0  0  0  0  0  0  0  0  0  0  0  0
    9.1128   -0.3217   -2.5966 H   0  0  0  0  0  0  0  0  0  0  0  0
    8.5945    2.0358   -2.0563 H   0  0  0  0  0  0  0  0  0  0  0  0
    9.4085    1.8801   -0.4971 H   0  0  0  0  0  0  0  0  0  0  0  0
   10.3304    1.7516   -2.0080 H   0  0  0  0  0  0  0  0  0  0  0  0
   11.2338   -0.1741   -0.9833 H   0  0  0  0  0  0  0  0  0  0  0  0
   10.1354   -0.7223    0.2810 H   0  0  0  0  0  0  0  0  0  0  0  0
   10.4455   -1.7184   -1.1605 H   0  0  0  0  0  0  0  0  0  0  0  0
   -2.4311    2.7078   -2.7882 H   0  0  0  0  0  0  0  0  0  0  0  0
    0.3743    2.2658   -3.9380 H   0  0  0  0  0  0  0  0  0  0  0  0
   -0.7833    3.5044   -4.4870 H   0  0  0  0  0  0  0  0  0  0  0  0
   -1.1387    1.7765   -4.6813 H   0  0  0  0  0  0  0  0  0  0  0  0
   -1.2517    3.6254   -0.7940 H   0  0  0  0  0  0  0  0  0  0  0  0
    0.3195    3.2959   -1.5268 H   0  0  0  0  0  0  0  0  0  0  0  0
   -0.7546    4.5340   -2.2247 H   0  0  0  0  0  0  0  0  0  0  0  0
   -3.7478    1.3723   -1.5116 H   0  0  0  0  0  0  0  0  0  0  0  0
   -5.5261    1.5102   -0.2151 H   0  0  0  0  0  0  0  0  0  0  0  0
   -5.3998    1.5968    2.8171 H   0  0  0  0  0  0  0  0  0  0  0  0
   -5.1662    2.9471    1.7282 H   0  0  0  0  0  0  0  0  0  0  0  0
   -7.3974    3.0315    1.1378 H   0  0  0  0  0  0  0  0  0  0  0  0
   -7.5080    2.4666    2.7982 H   0  0  0  0  0  0  0  0  0  0  0  0
   -9.8927    0.4390    0.9330 H   0  0  0  0  0  0  0  0  0  0  0  0
   -9.7193    2.0909    1.5092 H   0  0  0  0  0  0  0  0  0  0  0  0
   -8.9810    1.0260    3.8136 H   0  0  0  0  0  0  0  0  0  0  0  0
  -10.6773    0.9665    3.3659 H   0  0  0  0  0  0  0  0  0  0  0  0
  -10.3084   -1.1478    2.5376 H   0  0  0  0  0  0  0  0  0  0  0  0
   -7.0857   -0.4068    2.5810 H   0  0  0  0  0  0  0  0  0  0  0  0
   -7.8879   -1.0772    1.1557 H   0  0  0  0  0  0  0  0  0  0  0  0
   -5.3265   -1.1193    1.1946 H   0  0  0  0  0  0  0  0  0  0  0  0
   -6.1252   -0.6363   -0.2843 H   0  0  0  0  0  0  0  0  0  0  0  0
  1  2  1  0
  2  3  2  0
  3  4  1  0
  4  5  1  0
  5  6  1  0
  6  7  2  0
  7  8  1  0
  8  9  2  0
  9 10  1  0
  9 11  1  0
 11 12  1  0
 12 13  1  0
 13 14  2  0
 14 15  1  0
 15 16  2  0
 16 17  1  0
 17 18  2  0
 18 19  1  0
 19 20  2  0
 19 21  2  0
 19 22  1  0
 22 23  1  0
 22 24  1  0
 11 25  2  0
  4 26  2  0
 26 27  1  0
 27 28  1  0
 28 29  1  0
 28 30  1  0
 26 31  1  0
 31 32  2  0
 32 33  1  0
 33 34  1  0
 34 35  1  0
 35 36  1  0
 36 37  1  0
 37 38  1  0
 38 39  1  0
 36 40  1  0
 40 41  1  0
 32  2  1  0
 41 33  1  0
 25  6  1  0
 18 13  1  0
  1 42  1  0
  1 43  1  0
  1 44  1  0
  3 45  1  0
  5 46  1  0
  8 47  1  0
 12 48  1  0
 14 49  1  0
 15 50  1  0
 16 51  1  0
 17 52  1  0
 22 53  1  0
 23 54  1  0
 23 55  1  0
 23 56  1  0
 24 57  1  0
 24 58  1  0
 24 59  1  0
 28 60  1  0
 29 61  1  0
 29 62  1  0
 29 63  1  0
 30 64  1  0
 30 65  1  0
 30 66  1  0
 31 67  1  0
 33 68  1  0
 34 69  1  0
 34 70  1  0
 35 71  1  0
 35 72  1  0
 37 73  1  0
 37 74  1  0
 38 75  1  0
 38 76  1  0
 39 77  1  0
 40 78  1  0
 40 79  1  0
 41 80  1  0
 41 81  1  0
M  END
$$$$
Molecule_2
     RDKit          3D

 74 77  0  0  0  0  0  0  0  0999 V2000
   -4.2893    0.3184   -3.0352 C   0  0  0  0  0  0  0  0  0  0  0  0
   -3.6345    0.3136   -1.6765 C   0  0  0  0  0  0  0  0  0  0  0  0
   -2.2961   -0.1316   -1.5925 C   0  0  0  0  0  0  0  0  0  0  0  0
   -1.5862   -0.1293   -0.3886 C   0  0  0  0  0  0  0  0  0  0  0  0
   -0.2403   -0.5114   -0.2763 N   0  0  0  0  0  0  0  0  0  0  0  0
    0.6761   -1.0279   -1.1824 C   0  0  0  0  0  0  0  0  0  0  0  0
    0.2797   -1.7329   -2.2506 N   0  0  0  0  0  0  0  0  0  0  0  0
    1.2447   -2.2533   -3.0337 C   0  0  0  0  0  0  0  0  0  0  0  0
    2.5879   -2.0850   -2.8019 C   0  0  0  0  0  0  0  0  0  0  0  0
    3.7523   -2.7788   -3.8548 Cl  0  0  0  0  0  0  0  0  0  0  0  0
    2.9200   -1.3286   -1.6876 C   0  0  0  0  0  0  0  0  0  0  0  0
    4.2728   -1.0394   -1.4029 N   0  0  0  0  0  0  0  0  0  0  0  0
    4.8827    0.2205   -1.2082 C   0  0  0  0  0  0  0  0  0  0  0  0
    4.1446    1.4144   -1.2794 C   0  0  0  0  0  0  0  0  0  0  0  0
    4.7516    2.6661   -1.1100 C   0  0  0  0  0  0  0  0  0  0  0  0
    6.1133    2.7551   -0.8457 C   0  0  0  0  0  0  0  0  0  0  0  0
    6.8641    1.5902   -0.7212 C   0  0  0  0  0  0  0  0  0  0  0  0
    6.2458    0.3354   -0.8690 C   0  0  0  0  0  0  0  0  0  0  0  0
    7.2489   -1.1192   -0.6401 S   0  0  0  0  0  0  0  0  0  0  0  0
    6.7475   -2.1148   -1.5788 O   0  0  0  0  0  0  0  0  0  0  0  0
    8.6417   -0.7092   -0.6844 O   0  0  0  0  0  0  0  0  0  0  0  0
    6.8659   -1.6791    1.0269 C   0  0  0  0  0  0  0  0  0  0  0  0
    7.1253   -0.6036    2.0730 C   0  0  0  0  0  0  0  0  0  0  0  0
    7.6682   -2.9396    1.3465 C   0  0  0  0  0  0  0  0  0  0  0  0
    1.9679   -0.8149   -0.8763 N   0  0  0  0  0  0  0  0  0  0  0  0
   -2.2983    0.2164    0.7679 C   0  0  0  0  0  0  0  0  0  0  0  0
   -1.7289    0.1442    2.0213 O   0  0  0  0  0  0  0  0  0  0  0  0
   -1.6317   -1.2104    2.5055 C   0  0  0  0  0  0  0  0  0  0  0  0
   -2.9996   -1.7888    2.8800 C   0  0  0  0  0  0  0  0  0  0  0  0
   -0.7361   -1.1621    3.7437 C   0  0  0  0  0  0  0  0  0  0  0  0
   -3.6055    0.7066    0.7037 C   0  0  0  0  0  0  0  0  0  0  0  0
   -4.2882    0.7918   -0.5195 C   0  0  0  0  0  0  0  0  0  0  0  0
   -5.7102    1.3351   -0.5618 C   0  0  0  0  0  0  0  0  0  0  0  0
   -5.9378    2.5846    0.3047 C   0  0  0  0  0  0  0  0  0  0  0  0
   -7.3835    3.0704    0.1581 C   0  0  0  0  0  0  0  0  0  0  0  0
   -8.3965    2.0192    0.2735 N   0  0  0  0  0  0  0  0  0  0  0  0
   -7.8511    0.7340    0.6969 C   0  0  0  0  0  0  0  0  0  0  0  0
   -6.7413    0.2386   -0.2294 C   0  0  0  0  0  0  0  0  0  0  0  0
   -5.3223   -0.0403   -2.9890 H   0  0  0  0  0  0  0  0  0  0  0  0
   -4.2681    1.3287   -3.4542 H   0  0  0  0  0  0  0  0  0  0  0  0
   -3.7652   -0.3505   -3.7286 H   0  0  0  0  0  0  0  0  0  0  0  0
   -1.8033   -0.4551   -2.5059 H   0  0  0  0  0  0  0  0  0  0  0  0
    0.2441   -0.0539    0.4832 H   0  0  0  0  0  0  0  0  0  0  0  0
    0.8846   -2.8320   -3.8788 H   0  0  0  0  0  0  0  0  0  0  0  0
    4.9117   -1.7366   -1.8076 H   0  0  0  0  0  0  0  0  0  0  0  0
    3.0800    1.3954   -1.5003 H   0  0  0  0  0  0  0  0  0  0  0  0
    4.1545    3.5716   -1.1993 H   0  0  0  0  0  0  0  0  0  0  0  0
    6.5883    3.7288   -0.7363 H   0  0  0  0  0  0  0  0  0  0  0  0
    7.9287    1.6681   -0.4998 H   0  0  0  0  0  0  0  0  0  0  0  0
    5.8011   -1.9379    1.0270 H   0  0  0  0  0  0  0  0  0  0  0  0
    8.1621   -0.2553    2.0429 H   0  0  0  0  0  0  0  0  0  0  0  0
    6.4764    0.2626    1.9229 H   0  0  0  0  0  0  0  0  0  0  0  0
    6.9207   -0.9826    3.0780 H   0  0  0  0  0  0  0  0  0  0  0  0
    8.7462   -2.7447    1.3210 H   0  0  0  0  0  0  0  0  0  0  0  0
    7.4604   -3.7334    0.6183 H   0  0  0  0  0  0  0  0  0  0  0  0
    7.4103   -3.3249    2.3407 H   0  0  0  0  0  0  0  0  0  0  0  0
   -1.1550   -1.8633    1.7655 H   0  0  0  0  0  0  0  0  0  0  0  0
   -2.8967   -2.7747    3.3494 H   0  0  0  0  0  0  0  0  0  0  0  0
   -3.6269   -1.9178    1.9911 H   0  0  0  0  0  0  0  0  0  0  0  0
   -3.5439   -1.1268    3.5645 H   0  0  0  0  0  0  0  0  0  0  0  0
    0.2318   -0.7068    3.4953 H   0  0  0  0  0  0  0  0  0  0  0  0
   -0.5660   -2.1682    4.1408 H   0  0  0  0  0  0  0  0  0  0  0  0
   -1.1841   -0.5419    4.5299 H   0  0  0  0  0  0  0  0  0  0  0  0
   -4.0808    0.9986    1.6346 H   0  0  0  0  0  0  0  0  0  0  0  0
   -5.9114    1.6739   -1.5847 H   0  0  0  0  0  0  0  0  0  0  0  0
   -5.2481    3.3871    0.0120 H   0  0  0  0  0  0  0  0  0  0  0  0
   -5.7415    2.3808    1.3647 H   0  0  0  0  0  0  0  0  0  0  0  0
   -7.5857    3.8343    0.9180 H   0  0  0  0  0  0  0  0  0  0  0  0
   -7.4999    3.5680   -0.8148 H   0  0  0  0  0  0  0  0  0  0  0  0
   -8.8756    1.9117   -0.6201 H   0  0  0  0  0  0  0  0  0  0  0  0
   -7.4722    0.8044    1.7214 H   0  0  0  0  0  0  0  0  0  0  0  0
   -8.6565   -0.0087    0.7232 H   0  0  0  0  0  0  0  0  0  0  0  0
   -7.1803   -0.1351   -1.1637 H   0  0  0  0  0  0  0  0  0  0  0  0
   -6.2635   -0.6285    0.2435 H   0  0  0  0  0  0  0  0  0  0  0  0
  1  2  1  0
  2  3  2  0
  3  4  1  0
  4  5  1  0
  5  6  1  0
  6  7  2  0
  7  8  1  0
  8  9  2  0
  9 10  1  0
  9 11  1  0
 11 12  1  0
 12 13  1  0
 13 14  2  0
 14 15  1  0
 15 16  2  0
 16 17  1  0
 17 18  2  0
 18 19  1  0
 19 20  2  0
 19 21  2  0
 19 22  1  0
 22 23  1  0
 22 24  1  0
 11 25  2  0
  4 26  2  0
 26 27  1  0
 27 28  1  0
 28 29  1  0
 28 30  1  0
 26 31  1  0
 31 32  2  0
 32 33  1  0
 33 34  1  0
 34 35  1  0
 35 36  1  0
 36 37  1  0
 37 38  1  0
 32  2  1  0
 38 33  1  0
 25  6  1  0
 18 13  1  0
  1 39  1  0
  1 40  1  0
  1 41  1  0
  3 42  1  0
  5 43  1  0
  8 44  1  0
 12 45  1  0
 14 46  1  0
 15 47  1  0
 16 48  1  0
 17 49  1  0
 22 50  1  0
 23 51  1  0
 23 52  1  0
 23 53  1  0
 24 54  1  0
 24 55  1  0
 24 56  1  0
 28 57  1  0
 29 58  1  0
 29 59  1  0
 29 60  1  0
 30 61  1  0
 30 62  1  0
 30 63  1  0
 31 64  1  0
 33 65  1  0
 34 66  1  0
 34 67  1  0
 35 68  1  0
 35 69  1  0
 36 70  1  0
 37 71  1  0
 37 72  1  0
 38 73  1  0
 38 74  1  0
M  END
$$$$
Molecule_3
     RDKit          3D

 43 45  0  0  0  0  0  0  0  0999 V2000
    8.3348    2.1841   -0.2124 C   0  0  0  0  0  0  0  0  0  0  0  0
    7.2642    1.1537   -0.1657 C   0  0  0  0  0  0  0  0  0  0  0  0
    7.4395   -0.1082   -0.4802 N   0  0  0  0  0  0  0  0  0  0  0  0
    6.2467   -0.8044   -0.3477 C   0  0  0  0  0  0  0  0  0  0  0  0
    6.2342   -2.2468   -0.7051 C   0  0  0  0  0  0  0  0  0  0  0  0
    5.1782   -0.0477    0.1032 C   0  0  0  0  0  0  0  0  0  0  0  0
    3.8069   -0.4321    0.3901 C   0  0  0  0  0  0  0  0  0  0  0  0
    3.4819   -1.3545    1.3713 C   0  0  0  0  0  0  0  0  0  0  0  0
    2.1386   -1.6562    1.5807 C   0  0  0  0  0  0  0  0  0  0  0  0
    1.1806   -1.0360    0.7937 C   0  0  0  0  0  0  0  0  0  0  0  0
   -0.5433   -1.3355    1.0867 S   0  0  0  0  0  0  0  0  0  0  0  0
   -1.2022   -1.0693   -0.5896 C   0  0  0  0  0  0  0  0  0  0  0  0
   -2.7209   -1.1268   -0.5244 C   0  0  0  0  0  0  0  0  0  0  0  0
   -3.3236   -2.1621   -0.7848 O   0  0  0  0  0  0  0  0  0  0  0  0
   -3.2849    0.0831   -0.1449 N   0  0  0  0  0  0  0  0  0  0  0  0
   -4.6494    0.3793    0.0404 C   0  0  0  0  0  0  0  0  0  0  0  0
   -4.9725    1.6951    0.3920 C   0  0  0  0  0  0  0  0  0  0  0  0
   -6.3023    2.0744    0.5984 C   0  0  0  0  0  0  0  0  0  0  0  0
   -7.3370    1.1390    0.4684 C   0  0  0  0  0  0  0  0  0  0  0  0
   -8.7765    1.5368    0.6782 C   0  0  0  0  0  0  0  0  0  0  0  0
   -8.9174    2.6803    1.4068 F   0  0  0  0  0  0  0  0  0  0  0  0
   -9.4994    0.5877    1.3367 F   0  0  0  0  0  0  0  0  0  0  0  0
   -9.4303    1.7592   -0.4941 F   0  0  0  0  0  0  0  0  0  0  0  0
   -7.0106   -0.1755    0.1098 C   0  0  0  0  0  0  0  0  0  0  0  0
   -5.6790   -0.5512   -0.1016 C   0  0  0  0  0  0  0  0  0  0  0  0
    1.5323   -0.1542   -0.1653 N   0  0  0  0  0  0  0  0  0  0  0  0
    2.8565    0.1500   -0.3749 N   0  0  0  0  0  0  0  0  0  0  0  0
    5.6826    1.5749    0.3430 S   0  0  0  0  0  0  0  0  0  0  0  0
    7.9523    3.1453   -0.5701 H   0  0  0  0  0  0  0  0  0  0  0  0
    9.1365    1.8710   -0.8896 H   0  0  0  0  0  0  0  0  0  0  0  0
    8.7654    2.3276    0.7820 H   0  0  0  0  0  0  0  0  0  0  0  0
    5.3716   -2.4836   -1.3353 H   0  0  0  0  0  0  0  0  0  0  0  0
    7.1380   -2.5175   -1.2584 H   0  0  0  0  0  0  0  0  0  0  0  0
    6.1880   -2.8645    0.1950 H   0  0  0  0  0  0  0  0  0  0  0  0
    4.2482   -1.8125    1.9854 H   0  0  0  0  0  0  0  0  0  0  0  0
    1.8530   -2.3528    2.3622 H   0  0  0  0  0  0  0  0  0  0  0  0
   -0.8400   -1.8426   -1.2732 H   0  0  0  0  0  0  0  0  0  0  0  0
   -0.9009   -0.0944   -0.9871 H   0  0  0  0  0  0  0  0  0  0  0  0
   -2.6394    0.8398    0.0512 H   0  0  0  0  0  0  0  0  0  0  0  0
   -4.1960    2.4487    0.5040 H   0  0  0  0  0  0  0  0  0  0  0  0
   -6.5263    3.1061    0.8637 H   0  0  0  0  0  0  0  0  0  0  0  0
   -7.7957   -0.9234   -0.0049 H   0  0  0  0  0  0  0  0  0  0  0  0
   -5.4823   -1.5848   -0.3700 H   0  0  0  0  0  0  0  0  0  0  0  0
  1  2  1  0
  2  3  2  0
  3  4  1  0
  4  5  1  0
  4  6  2  0
  6  7  1  0
  7  8  2  0
  8  9  1  0
  9 10  2  0
 10 11  1  0
 11 12  1  0
 12 13  1  0
 13 14  2  0
 13 15  1  0
 15 16  1  0
 16 17  2  0
 17 18  1  0
 18 19  2  0
 19 20  1  0
 20 21  1  0
 20 22  1  0
 20 23  1  0
 19 24  1  0
 24 25  2  0
 10 26  1  0
 26 27  2  0
  6 28  1  0
 28  2  1  0
 27  7  1  0
 25 16  1  0
  1 29  1  0
  1 30  1  0
  1 31  1  0
  5 32  1  0
  5 33  1  0
  5 34  1  0
  8 35  1  0
  9 36  1  0
 12 37  1  0
 12 38  1  0
 15 39  1  0
 17 40  1  0
 18 41  1  0
 24 42  1  0
 25 43  1  0
M  END
$$$$
Molecule_4
     RDKit          3D

 44 47  0  0  0  0  0  0  0  0999 V2000
   -3.7836    0.0489    0.8000 C   0  0  0  0  0  0  0  0  0  0  0  0
   -2.3446    0.3369    1.0276 C   0  0  0  0  0  0  0  0  0  0  0  0
   -1.5324    1.3415    0.4043 C   0  0  0  0  0  0  0  0  0  0  0  0
   -1.9257    2.3327   -0.5960 C   0  0  0  0  0  0  0  0  0  0  0  0
   -3.0438    3.1503   -0.3951 C   0  0  0  0  0  0  0  0  0  0  0  0
   -3.4111    4.0927   -1.3586 C   0  0  0  0  0  0  0  0  0  0  0  0
   -2.6583    4.2271   -2.5255 C   0  0  0  0  0  0  0  0  0  0  0  0
   -1.5418    3.4161   -2.7232 C   0  0  0  0  0  0  0  0  0  0  0  0
   -0.6149    3.5828   -4.1636 Cl  0  0  0  0  0  0  0  0  0  0  0  0
   -1.1728    2.4757   -1.7702 C   0  0  0  0  0  0  0  0  0  0  0  0
   -0.2577    1.2708    0.8265 N   0  0  0  0  0  0  0  0  0  0  0  0
   -0.2769    0.2556    1.7055 N   0  0  0  0  0  0  0  0  0  0  0  0
   -1.4881   -0.3535    1.8695 C   0  0  0  0  0  0  0  0  0  0  0  0
   -1.6636   -1.4240    2.6923 N   0  0  0  0  0  0  0  0  0  0  0  0
   -0.6887   -1.6882    3.4955 C   0  0  0  0  0  0  0  0  0  0  0  0
   -0.8248   -2.7165    4.3406 O   0  0  0  0  0  0  0  0  0  0  0  0
    0.5901   -0.9239    3.6591 C   0  0  0  0  0  0  0  0  0  0  0  0
    0.9353   -0.2018    2.3603 C   0  0  1  0  0  0  0  0  0  0  0  0
    1.7605   -1.0601    1.4009 C   0  0  0  0  0  0  0  0  0  0  0  0
    2.1648   -2.1750    1.7192 O   0  0  0  0  0  0  0  0  0  0  0  0
    2.0741   -0.4023    0.2199 N   0  0  0  0  0  0  0  0  0  0  0  0
    2.7877   -0.9013   -0.8846 C   0  0  0  0  0  0  0  0  0  0  0  0
    3.1400   -2.2484   -1.0406 C   0  0  0  0  0  0  0  0  0  0  0  0
    3.8495   -2.6689   -2.1736 C   0  0  0  0  0  0  0  0  0  0  0  0
    4.2014   -1.7442   -3.1490 C   0  0  0  0  0  0  0  0  0  0  0  0
    4.8786   -2.1517   -4.2289 F   0  0  0  0  0  0  0  0  0  0  0  0
    3.8520   -0.4070   -3.0023 C   0  0  0  0  0  0  0  0  0  0  0  0
    4.2253    0.4925   -3.9216 F   0  0  0  0  0  0  0  0  0  0  0  0
    3.1468    0.0189   -1.8795 C   0  0  0  0  0  0  0  0  0  0  0  0
   -3.9936   -0.0446   -0.2705 H   0  0  0  0  0  0  0  0  0  0  0  0
   -4.4065    0.8488    1.2110 H   0  0  0  0  0  0  0  0  0  0  0  0
   -4.0875   -0.8885    1.2777 H   0  0  0  0  0  0  0  0  0  0  0  0
   -3.6285    3.0744    0.5165 H   0  0  0  0  0  0  0  0  0  0  0  0
   -4.2791    4.7265   -1.1973 H   0  0  0  0  0  0  0  0  0  0  0  0
   -2.9463    4.9606   -3.2736 H   0  0  0  0  0  0  0  0  0  0  0  0
   -0.3012    1.8467   -1.9353 H   0  0  0  0  0  0  0  0  0  0  0  0
   -1.6839   -3.1370    4.1612 H   0  0  0  0  0  0  0  0  0  0  0  0
    0.4196   -0.1947    4.4591 H   0  0  0  0  0  0  0  0  0  0  0  0
    1.3904   -1.5927    3.9926 H   0  0  0  0  0  0  0  0  0  0  0  0
    1.5329    0.6857    2.6003 H   0  0  0  0  0  0  0  0  0  0  0  0
    1.6966    0.5418    0.1204 H   0  0  0  0  0  0  0  0  0  0  0  0
    2.8687   -2.9990   -0.3048 H   0  0  0  0  0  0  0  0  0  0  0  0
    4.1267   -3.7130   -2.2833 H   0  0  0  0  0  0  0  0  0  0  0  0
    2.9141    1.0758   -1.7825 H   0  0  0  0  0  0  0  0  0  0  0  0
  1  2  1  0
  2  3  1  0
  3  4  1  0
  4  5  2  0
  5  6  1  0
  6  7  2  0
  7  8  1  0
  8  9  1  0
  8 10  2  0
  3 11  2  0
 11 12  1  0
 12 13  1  0
 13 14  1  0
 14 15  2  0
 15 16  1  0
 15 17  1  0
 17 18  1  0
 18 19  1  0
 19 20  2  0
 19 21  1  0
 21 22  1  0
 22 23  2  0
 23 24  1  0
 24 25  2  0
 25 26  1  0
 25 27  1  0
 27 28  1  0
 27 29  2  0
 13  2  2  0
 29 22  1  0
 10  4  1  0
 18 12  1  0
  1 30  1  0
  1 31  1  0
  1 32  1  0
  5 33  1  0
  6 34  1  0
  7 35  1  0
 10 36  1  0
 16 37  1  0
 17 38  1  0
 17 39  1  0
 18 40  1  1
 21 41  1  0
 23 42  1  0
 24 43  1  0
 29 44  1  0
M  END
$$$$
Molecule_5
     RDKit          3D

 45 50  0  0  0  0  0  0  0  0999 V2000
   -3.7775    2.0350   -2.4220 C   0  0  0  0  0  0  0  0  0  0  0  0
   -3.5651    2.3252   -0.9868 C   0  0  0  0  0  0  0  0  0  0  0  0
   -4.4630    3.0519   -0.2399 N   0  0  0  0  0  0  0  0  0  0  0  0
   -4.0946    3.2132    1.0467 N   0  0  0  0  0  0  0  0  0  0  0  0
   -2.9417    2.5575    1.1004 C   0  0  0  0  0  0  0  0  0  0  0  0
   -2.5604    1.9711   -0.1069 C   0  0  0  0  0  0  0  0  0  0  0  0
   -1.2977    1.1982   -0.2114 C   0  0  2  0  0  0  0  0  0  0  0  0
   -1.6990   -0.2203   -0.6009 C   0  0  0  0  0  0  0  0  0  0  0  0
   -2.5237   -1.0200    0.2124 C   0  0  0  0  0  0  0  0  0  0  0  0
   -2.8561   -2.3214   -0.1686 C   0  0  0  0  0  0  0  0  0  0  0  0
   -2.3653   -2.8474   -1.3611 C   0  0  0  0  0  0  0  0  0  0  0  0
   -1.5392   -2.0746   -2.1736 C   0  0  0  0  0  0  0  0  0  0  0  0
   -1.2060   -0.7724   -1.7961 C   0  0  0  0  0  0  0  0  0  0  0  0
   -0.5035    1.2537    1.0957 C   0  0  0  0  0  0  0  0  0  0  0  0
   -0.9929    1.8647    2.2212 C   0  0  0  0  0  0  0  0  0  0  0  0
   -0.3126    1.9177    3.4352 N   0  0  0  0  0  0  0  0  0  0  0  0
    0.8644    1.3715    3.5089 C   0  0  0  0  0  0  0  0  0  0  0  0
    1.4190    0.7632    2.4033 N   0  0  0  0  0  0  0  0  0  0  0  0
    2.6261    0.1789    2.3892 N   0  0  0  0  0  0  0  0  0  0  0  0
    2.7199   -0.2101    1.1060 C   0  0  0  0  0  0  0  0  0  0  0  0
    3.8416   -0.9497    0.5424 C   0  0  0  0  0  0  0  0  0  0  0  0
    3.5518   -1.9995   -0.3505 C   0  0  0  0  0  0  0  0  0  0  0  0
    4.5723   -2.7642   -0.9200 C   0  0  0  0  0  0  0  0  0  0  0  0
    5.9000   -2.4876   -0.6107 C   0  0  0  0  0  0  0  0  0  0  0  0
    6.2059   -1.4422    0.2608 C   0  0  0  0  0  0  0  0  0  0  0  0
    5.1855   -0.6705    0.8352 C   0  0  0  0  0  0  0  0  0  0  0  0
    5.6866    0.6415    1.8477 Cl  0  0  0  0  0  0  0  0  0  0  0  0
    1.5986    0.0804    0.3464 N   0  0  0  0  0  0  0  0  0  0  0  0
    0.8002    0.6886    1.1947 C   0  0  0  0  0  0  0  0  0  0  0  0
   -2.2435    2.5010    2.2462 O   0  0  0  0  0  0  0  0  0  0  0  0
   -4.2811    1.0709   -2.5440 H   0  0  0  0  0  0  0  0  0  0  0  0
   -2.8224    1.9938   -2.9552 H   0  0  0  0  0  0  0  0  0  0  0  0
   -4.3922    2.8063   -2.8970 H   0  0  0  0  0  0  0  0  0  0  0  0
   -5.3380    3.4675   -0.5431 H   0  0  0  0  0  0  0  0  0  0  0  0
   -0.6858    1.6510   -1.0035 H   0  0  0  0  0  0  0  0  0  0  0  0
   -2.9210   -0.6336    1.1493 H   0  0  0  0  0  0  0  0  0  0  0  0
   -3.4986   -2.9245    0.4679 H   0  0  0  0  0  0  0  0  0  0  0  0
   -2.6239   -3.8612   -1.6550 H   0  0  0  0  0  0  0  0  0  0  0  0
   -1.1495   -2.4872   -3.1005 H   0  0  0  0  0  0  0  0  0  0  0  0
   -0.5479   -0.1916   -2.4393 H   0  0  0  0  0  0  0  0  0  0  0  0
    1.4406    1.3847    4.4472 H   0  0  0  0  0  0  0  0  0  0  0  0
    2.5165   -2.2302   -0.6013 H   0  0  0  0  0  0  0  0  0  0  0  0
    4.3273   -3.5742   -1.6029 H   0  0  0  0  0  0  0  0  0  0  0  0
    6.6981   -3.0797   -1.0518 H   0  0  0  0  0  0  0  0  0  0  0  0
    7.2479   -1.2255    0.4855 H   0  0  0  0  0  0  0  0  0  0  0  0
  1  2  1  0
  2  3  1  0
  3  4  1  0
  4  5  2  0
  5  6  1  0
  6  7  1  0
  7  8  1  0
  8  9  2  0
  9 10  1  0
 10 11  2  0
 11 12  1  0
 12 13  2  0
  7 14  1  0
 14 15  2  0
 15 16  1  0
 16 17  2  0
 17 18  1  0
 18 19  1  0
 19 20  2  0
 20 21  1  0
 21 22  2  0
 22 23  1  0
 23 24  2  0
 24 25  1  0
 25 26  2  0
 26 27  1  0
 20 28  1  0
 28 29  2  0
 15 30  1  0
  6  2  2  0
 13  8  1  0
 29 14  1  0
 30  5  1  0
 29 18  1  0
 26 21  1  0
  1 31  1  0
  1 32  1  0
  1 33  1  0
  3 34  1  0
  7 35  1  6
  9 36  1  0
 10 37  1  0
 11 38  1  0
 12 39  1  0
 13 40  1  0
 17 41  1  0
 22 42  1  0
 23 43  1  0
 24 44  1  0
 25 45  1  0
M  END
$$$$
Molecule_6
     RDKit          3D

 53 57  0  0  0  0  0  0  0  0999 V2000
   -8.8112    0.0591    1.5577 C   0  0  0  0  0  0  0  0  0  0  0  0
   -7.7693    0.3024    0.6210 O   0  0  0  0  0  0  0  0  0  0  0  0
   -6.4854    0.1778    1.0761 C   0  0  0  0  0  0  0  0  0  0  0  0
   -6.1047   -0.1719    2.3717 C   0  0  0  0  0  0  0  0  0  0  0  0
   -4.7505   -0.2629    2.7039 C   0  0  0  0  0  0  0  0  0  0  0  0
   -3.7718   -0.0055    1.7431 C   0  0  0  0  0  0  0  0  0  0  0  0
   -4.1385    0.3442    0.4381 C   0  0  0  0  0  0  0  0  0  0  0  0
   -3.1168    0.6294   -0.5824 C   0  0  0  0  0  0  0  0  0  0  0  0
   -2.1990   -0.2981   -0.9193 C   0  0  0  0  0  0  0  0  0  0  0  0
   -1.1357   -0.0027   -1.9693 C   0  0  2  0  0  0  0  0  0  0  0  0
    0.2668   -0.1323   -1.3899 C   0  0  0  0  0  0  0  0  0  0  0  0
    1.1692   -1.0617   -1.9302 C   0  0  0  0  0  0  0  0  0  0  0  0
    2.4596   -1.2016   -1.4042 C   0  0  0  0  0  0  0  0  0  0  0  0
    2.8689   -0.4136   -0.3295 C   0  0  0  0  0  0  0  0  0  0  0  0
    4.0928   -0.4494    0.2784 O   0  0  0  0  0  0  0  0  0  0  0  0
    5.0698   -1.3251   -0.2787 C   0  0  0  0  0  0  0  0  0  0  0  0
    6.3533   -1.1573    0.4972 C   0  0  0  0  0  0  0  0  0  0  0  0
    6.7696   -2.1295    1.4172 C   0  0  0  0  0  0  0  0  0  0  0  0
    7.9568   -1.9635    2.1330 C   0  0  0  0  0  0  0  0  0  0  0  0
    8.7351   -0.8232    1.9410 C   0  0  0  0  0  0  0  0  0  0  0  0
    8.3256    0.1550    1.0369 C   0  0  0  0  0  0  0  0  0  0  0  0
    7.1392   -0.0091    0.3204 C   0  0  0  0  0  0  0  0  0  0  0  0
    1.9778    0.5137    0.2129 C   0  0  0  0  0  0  0  0  0  0  0  0
    0.6906    0.6584   -0.3098 C   0  0  0  0  0  0  0  0  0  0  0  0
   -1.3324    1.3148   -2.5838 N   0  0  0  0  0  0  0  0  0  0  0  0
   -0.6531    1.7692   -3.6588 N   0  0  0  0  0  0  0  0  0  0  0  0
   -1.2202    2.9713   -3.8150 C   0  0  0  0  0  0  0  0  0  0  0  0
   -2.2351    3.2741   -2.9436 N   0  0  0  0  0  0  0  0  0  0  0  0
   -2.3036    2.2016   -2.1962 C   0  0  0  0  0  0  0  0  0  0  0  0
   -3.1409    1.8662   -1.1961 N   0  0  0  0  0  0  0  0  0  0  0  0
   -5.5001    0.4346    0.1173 C   0  0  0  0  0  0  0  0  0  0  0  0
   -8.7717    0.7735    2.3866 H   0  0  0  0  0  0  0  0  0  0  0  0
   -9.7652    0.2013    1.0410 H   0  0  0  0  0  0  0  0  0  0  0  0
   -8.7811   -0.9731    1.9224 H   0  0  0  0  0  0  0  0  0  0  0  0
   -6.8349   -0.3788    3.1469 H   0  0  0  0  0  0  0  0  0  0  0  0
   -4.4577   -0.5317    3.7160 H   0  0  0  0  0  0  0  0  0  0  0  0
   -2.7226   -0.0699    2.0233 H   0  0  0  0  0  0  0  0  0  0  0  0
   -2.1875   -1.2810   -0.4585 H   0  0  0  0  0  0  0  0  0  0  0  0
   -1.2729   -0.7196   -2.7897 H   0  0  0  0  0  0  0  0  0  0  0  0
    0.8795   -1.6827   -2.7760 H   0  0  0  0  0  0  0  0  0  0  0  0
    3.1165   -1.9334   -1.8623 H   0  0  0  0  0  0  0  0  0  0  0  0
    5.2607   -1.0794   -1.3313 H   0  0  0  0  0  0  0  0  0  0  0  0
    4.7293   -2.3659   -0.2117 H   0  0  0  0  0  0  0  0  0  0  0  0
    6.1693   -3.0204    1.5865 H   0  0  0  0  0  0  0  0  0  0  0  0
    8.2722   -2.7221    2.8445 H   0  0  0  0  0  0  0  0  0  0  0  0
    9.6573   -0.6936    2.5010 H   0  0  0  0  0  0  0  0  0  0  0  0
    8.9267    1.0490    0.8933 H   0  0  0  0  0  0  0  0  0  0  0  0
    6.8226    0.7668   -0.3737 H   0  0  0  0  0  0  0  0  0  0  0  0
    2.2920    1.1353    1.0484 H   0  0  0  0  0  0  0  0  0  0  0  0
    0.0258    1.3983    0.1325 H   0  0  0  0  0  0  0  0  0  0  0  0
   -0.8916    3.6483   -4.5932 H   0  0  0  0  0  0  0  0  0  0  0  0
   -3.8673    2.5161   -0.9118 H   0  0  0  0  0  0  0  0  0  0  0  0
   -5.8063    0.6987   -0.8932 H   0  0  0  0  0  0  0  0  0  0  0  0
  1  2  1  0
  2  3  1  0
  3  4  2  0
  4  5  1  0
  5  6  2  0
  6  7  1  0
  7  8  1  0
  8  9  2  0
  9 10  1  0
 10 11  1  0
 11 12  2  0
 12 13  1  0
 13 14  2  0
 14 15  1  0
 15 16  1  0
 16 17  1  0
 17 18  2  0
 18 19  1  0
 19 20  2  0
 20 21  1  0
 21 22  2  0
 14 23  1  0
 23 24  2  0
 10 25  1  0
 25 26  1  0
 26 27  2  0
 27 28  1  0
 28 29  2  0
 29 30  1  0
  7 31  2  0
 31  3  1  0
 30  8  1  0
 24 11  1  0
 29 25  1  0
 22 17  1  0
  1 32  1  0
  1 33  1  0
  1 34  1  0
  4 35  1  0
  5 36  1  0
  6 37  1  0
  9 38  1  0
 10 39  1  6
 12 40  1  0
 13 41  1  0
 16 42  1  0
 16 43  1  0
 18 44  1  0
 19 45  1  0
 20 46  1  0
 21 47  1  0
 22 48  1  0
 23 49  1  0
 24 50  1  0
 27 51  1  0
 30 52  1  0
 31 53  1  0
M  END
$$$$
Molecule_7
     RDKit          3D

 52 54  0  0  0  0  0  0  0  0999 V2000
   -3.9783   -1.4826   -2.4575 C   0  0  0  0  0  0  0  0  0  0  0  0
   -4.0844    0.0338   -2.4213 C   0  0  1  0  0  0  0  0  0  0  0  0
   -5.5404    0.6251   -1.4625 S   0  0  0  0  0  0  0  0  0  0  0  0
   -4.9433    0.5860    0.2100 C   0  0  0  0  0  0  0  0  0  0  0  0
   -4.2051    1.6565    0.7262 C   0  0  0  0  0  0  0  0  0  0  0  0
   -3.7489    1.6270    2.0465 C   0  0  0  0  0  0  0  0  0  0  0  0
   -4.0454    0.5327    2.8559 C   0  0  0  0  0  0  0  0  0  0  0  0
   -3.4732    0.4873    4.4767 Cl  0  0  0  0  0  0  0  0  0  0  0  0
   -4.8026   -0.5269    2.3598 C   0  0  0  0  0  0  0  0  0  0  0  0
   -5.2577   -0.4961    1.0388 C   0  0  0  0  0  0  0  0  0  0  0  0
   -2.8301    0.8932   -2.1818 C   0  0  0  0  0  0  0  0  0  0  0  0
   -2.8045    2.0325   -2.6706 O   0  0  0  0  0  0  0  0  0  0  0  0
   -1.7457    0.4425   -1.4473 N   0  0  0  0  0  0  0  0  0  0  0  0
   -1.6861   -0.7500   -0.5985 C   0  0  0  0  0  0  0  0  0  0  0  0
   -0.6767   -0.6058    0.5581 C   0  0  0  0  0  0  0  0  0  0  0  0
    0.7026   -0.2757    0.1488 N   0  0  0  0  0  0  0  0  0  0  0  0
    1.5446   -1.4749    0.0506 C   0  0  0  0  0  0  0  0  0  0  0  0
    3.0315   -1.2321    0.0162 C   0  0  0  0  0  0  0  0  0  0  0  0
    3.6712   -0.1181    0.4112 C   0  0  0  0  0  0  0  0  0  0  0  0
    5.1270    0.0687    0.3486 C   0  0  0  0  0  0  0  0  0  0  0  0
    5.6318    1.3365    0.0314 C   0  0  0  0  0  0  0  0  0  0  0  0
    7.0097    1.5638   -0.0139 C   0  0  0  0  0  0  0  0  0  0  0  0
    7.8970    0.5278    0.2693 C   0  0  0  0  0  0  0  0  0  0  0  0
    7.4074   -0.7333    0.6029 C   0  0  0  0  0  0  0  0  0  0  0  0
    6.0292   -0.9605    0.6475 C   0  0  0  0  0  0  0  0  0  0  0  0
    0.7240    0.5045   -1.1125 C   0  0  0  0  0  0  0  0  0  0  0  0
   -0.5618    1.3095   -1.3747 C   0  0  0  0  0  0  0  0  0  0  0  0
   -3.0605   -1.7983   -2.9643 H   0  0  0  0  0  0  0  0  0  0  0  0
   -4.8178   -1.9101   -3.0190 H   0  0  0  0  0  0  0  0  0  0  0  0
   -4.0006   -1.9431   -1.4668 H   0  0  0  0  0  0  0  0  0  0  0  0
   -4.3500    0.2934   -3.4571 H   0  0  0  0  0  0  0  0  0  0  0  0
   -3.9765    2.5207    0.1042 H   0  0  0  0  0  0  0  0  0  0  0  0
   -3.1676    2.4600    2.4332 H   0  0  0  0  0  0  0  0  0  0  0  0
   -5.0480   -1.3737    2.9952 H   0  0  0  0  0  0  0  0  0  0  0  0
   -5.8600   -1.3209    0.6643 H   0  0  0  0  0  0  0  0  0  0  0  0
   -1.4002   -1.5932   -1.2367 H   0  0  0  0  0  0  0  0  0  0  0  0
   -2.6672   -0.9531   -0.1755 H   0  0  0  0  0  0  0  0  0  0  0  0
   -1.0174    0.2127    1.2054 H   0  0  0  0  0  0  0  0  0  0  0  0
   -0.7090   -1.5025    1.1888 H   0  0  0  0  0  0  0  0  0  0  0  0
    1.3755   -2.1204    0.9226 H   0  0  0  0  0  0  0  0  0  0  0  0
    1.2596   -2.0690   -0.8275 H   0  0  0  0  0  0  0  0  0  0  0  0
    3.6090   -2.0701   -0.3678 H   0  0  0  0  0  0  0  0  0  0  0  0
    3.1049    0.7258    0.7996 H   0  0  0  0  0  0  0  0  0  0  0  0
    4.9544    2.1578   -0.1913 H   0  0  0  0  0  0  0  0  0  0  0  0
    7.3883    2.5503   -0.2682 H   0  0  0  0  0  0  0  0  0  0  0  0
    8.9688    0.7046    0.2362 H   0  0  0  0  0  0  0  0  0  0  0  0
    8.0973   -1.5402    0.8354 H   0  0  0  0  0  0  0  0  0  0  0  0
    5.6697   -1.9463    0.9309 H   0  0  0  0  0  0  0  0  0  0  0  0
    1.5711    1.1985   -1.0933 H   0  0  0  0  0  0  0  0  0  0  0  0
    0.8697   -0.1617   -1.9739 H   0  0  0  0  0  0  0  0  0  0  0  0
   -0.4514    1.8698   -2.3100 H   0  0  0  0  0  0  0  0  0  0  0  0
   -0.7338    2.0376   -0.5724 H   0  0  0  0  0  0  0  0  0  0  0  0
  1  2  1  0
  2  3  1  0
  3  4  1  0
  4  5  2  0
  5  6  1  0
  6  7  2  0
  7  8  1  0
  7  9  1  0
  9 10  2  0
  2 11  1  0
 11 12  2  0
 11 13  1  0
 13 14  1  0
 14 15  1  0
 15 16  1  0
 16 17  1  0
 17 18  1  0
 18 19  2  0
 19 20  1  0
 20 21  2  0
 21 22  1  0
 22 23  2  0
 23 24  1  0
 24 25  2  0
 16 26  1  0
 26 27  1  0
 10  4  1  0
 27 13  1  0
 25 20  1  0
  1 28  1  0
  1 29  1  0
  1 30  1  0
  2 31  1  6
  5 32  1  0
  6 33  1  0
  9 34  1  0
 10 35  1  0
 14 36  1  0
 14 37  1  0
 15 38  1  0
 15 39  1  0
 17 40  1  0
 17 41  1  0
 18 42  1  0
 19 43  1  0
 21 44  1  0
 22 45  1  0
 23 46  1  0
 24 47  1  0
 25 48  1  0
 26 49  1  0
 26 50  1  0
 27 51  1  0
 27 52  1  0
M  END
$$$$
Molecule_8
     RDKit          3D

 43 47  0  0  0  0  0  0  0  0999 V2000
   -4.1709   -0.7383   -3.1137 O   0  0  0  0  0  0  0  0  0  0  0  0
   -3.9515   -1.0083   -1.9342 C   0  0  0  0  0  0  0  0  0  0  0  0
   -5.0406   -1.5599   -1.0400 C   0  0  0  0  0  0  0  0  0  0  0  0
   -4.7560   -1.4103    0.4563 C   0  0  2  0  0  0  0  0  0  0  0  0
   -4.9661   -0.0089    0.9381 C   0  0  0  0  0  0  0  0  0  0  0  0
   -5.7664    0.5373    1.9199 C   0  0  0  0  0  0  0  0  0  0  0  0
   -5.5215    1.9315    1.9047 C   0  0  0  0  0  0  0  0  0  0  0  0
   -4.5899    2.1467    0.9173 C   0  0  0  0  0  0  0  0  0  0  0  0
   -4.2477    0.9742    0.3260 O   0  0  0  0  0  0  0  0  0  0  0  0
   -3.3738   -1.9433    0.8356 C   0  0  0  0  0  0  0  0  0  0  0  0
   -2.2548   -1.3203    0.0250 C   0  0  0  0  0  0  0  0  0  0  0  0
   -1.0749   -1.2460    0.5723 N   0  0  0  0  0  0  0  0  0  0  0  0
   -0.0857   -0.6902   -0.1890 C   0  0  0  0  0  0  0  0  0  0  0  0
    1.1765   -0.4809    0.1095 N   0  0  0  0  0  0  0  0  0  0  0  0
    1.6782    0.0929   -1.0196 C   0  0  0  0  0  0  0  0  0  0  0  0
    3.3374    0.5930   -1.1881 S   0  0  0  0  0  0  0  0  0  0  0  0
    3.9687    0.1523    0.4535 C   0  0  0  0  0  0  0  0  0  0  0  0
    5.4324    0.4966    0.5910 C   0  0  0  0  0  0  0  0  0  0  0  0
    6.4211   -0.4318    0.2296 C   0  0  0  0  0  0  0  0  0  0  0  0
    7.7749   -0.1088    0.3435 C   0  0  0  0  0  0  0  0  0  0  0  0
    8.1557    1.1470    0.8152 C   0  0  0  0  0  0  0  0  0  0  0  0
    7.1802    2.0770    1.1679 C   0  0  0  0  0  0  0  0  0  0  0  0
    7.6499    3.6289    1.7454 Cl  0  0  0  0  0  0  0  0  0  0  0  0
    5.8261    1.7609    1.0565 C   0  0  0  0  0  0  0  0  0  0  0  0
    0.8127    0.2546   -2.0201 N   0  0  0  0  0  0  0  0  0  0  0  0
   -0.3242   -0.2434   -1.4943 N   0  0  0  0  0  0  0  0  0  0  0  0
   -1.5791   -0.3497   -2.0707 C   0  0  0  0  0  0  0  0  0  0  0  0
   -2.5896   -0.8824   -1.3676 C   0  0  0  0  0  0  0  0  0  0  0  0
   -5.9797   -1.0555   -1.2980 H   0  0  0  0  0  0  0  0  0  0  0  0
   -5.1473   -2.6226   -1.2896 H   0  0  0  0  0  0  0  0  0  0  0  0
   -5.4945   -2.0317    0.9827 H   0  0  0  0  0  0  0  0  0  0  0  0
   -6.4429   -0.0020    2.5690 H   0  0  0  0  0  0  0  0  0  0  0  0
   -5.9674    2.6879    2.5354 H   0  0  0  0  0  0  0  0  0  0  0  0
   -4.0952    3.0285    0.5333 H   0  0  0  0  0  0  0  0  0  0  0  0
   -3.1760   -1.7725    1.9012 H   0  0  0  0  0  0  0  0  0  0  0  0
   -3.3298   -3.0263    0.6653 H   0  0  0  0  0  0  0  0  0  0  0  0
    3.3974    0.6804    1.2260 H   0  0  0  0  0  0  0  0  0  0  0  0
    3.8304   -0.9210    0.6295 H   0  0  0  0  0  0  0  0  0  0  0  0
    6.1397   -1.4130   -0.1487 H   0  0  0  0  0  0  0  0  0  0  0  0
    8.5323   -0.8355    0.0603 H   0  0  0  0  0  0  0  0  0  0  0  0
    9.2100    1.3950    0.9006 H   0  0  0  0  0  0  0  0  0  0  0  0
    5.0758    2.5001    1.3280 H   0  0  0  0  0  0  0  0  0  0  0  0
   -1.6739    0.0180   -3.0850 H   0  0  0  0  0  0  0  0  0  0  0  0
  1  2  2  0
  2  3  1  0
  3  4  1  0
  4  5  1  0
  5  6  2  0
  6  7  1  0
  7  8  2  0
  8  9  1  0
  4 10  1  0
 10 11  1  0
 11 12  2  0
 12 13  1  0
 13 14  2  0
 14 15  1  0
 15 16  1  0
 16 17  1  0
 17 18  1  0
 18 19  2  0
 19 20  1  0
 20 21  2  0
 21 22  1  0
 22 23  1  0
 22 24  2  0
 15 25  2  0
 25 26  1  0
 26 27  1  0
 27 28  2  0
 28  2  1  0
  9  5  1  0
 28 11  1  0
 26 13  1  0
 24 18  1  0
  3 29  1  0
  3 30  1  0
  4 31  1  1
  6 32  1  0
  7 33  1  0
  8 34  1  0
 10 35  1  0
 10 36  1  0
 17 37  1  0
 17 38  1  0
 19 39  1  0
 20 40  1  0
 21 41  1  0
 24 42  1  0
 27 43  1  0
M  END
$$$$
Molecule_9
     RDKit          3D

 40 41  0  0  0  0  0  0  0  0999 V2000
   -4.7737   -1.5098    1.5290 C   0  0  0  0  0  0  0  0  0  0  0  0
   -4.4142   -0.0562    1.2708 C   0  0  0  0  0  0  0  0  0  0  0  0
   -3.6641    0.1490    0.0004 N   0  0  0  0  0  0  0  0  0  0  0  0
   -2.2482   -0.0857    0.0483 C   0  0  0  0  0  0  0  0  0  0  0  0
   -1.4313    0.9818    0.4345 C   0  0  0  0  0  0  0  0  0  0  0  0
   -0.0493    0.8095    0.5619 C   0  0  0  0  0  0  0  0  0  0  0  0
    0.5227   -0.4446    0.3138 C   0  0  0  0  0  0  0  0  0  0  0  0
    1.9888   -0.6830    0.4456 C   0  0  0  0  0  0  0  0  0  0  0  0
    2.3693   -1.7801    0.8334 O   0  0  0  0  0  0  0  0  0  0  0  0
    2.7903    0.3781    0.0725 N   0  0  0  0  0  0  0  0  0  0  0  0
    4.2042    0.4560    0.1164 C   0  0  0  0  0  0  0  0  0  0  0  0
    5.0140   -0.5513    0.6502 C   0  0  0  0  0  0  0  0  0  0  0  0
    6.4090   -0.4121    0.6675 C   0  0  0  0  0  0  0  0  0  0  0  0
    7.3383   -1.7026    1.3454 Cl  0  0  0  0  0  0  0  0  0  0  0  0
    7.0064    0.7426    0.1506 C   0  0  0  0  0  0  0  0  0  0  0  0
    8.7177    0.9786    0.1415 Cl  0  0  0  0  0  0  0  0  0  0  0  0
    6.2107    1.7576   -0.3806 C   0  0  0  0  0  0  0  0  0  0  0  0
    4.8222    1.6135   -0.3947 C   0  0  0  0  0  0  0  0  0  0  0  0
    3.8773    2.9044   -1.0595 Cl  0  0  0  0  0  0  0  0  0  0  0  0
   -0.3016   -1.5237   -0.0272 C   0  0  0  0  0  0  0  0  0  0  0  0
   -1.6826   -1.3451   -0.1542 C   0  0  0  0  0  0  0  0  0  0  0  0
   -4.4980   -0.2042   -1.4417 S   0  0  0  0  0  0  0  0  0  0  0  0
   -3.7277    0.9244   -2.5847 C   0  0  0  0  0  0  0  0  0  0  0  0
   -4.2017   -1.5579   -1.8595 O   0  0  0  0  0  0  0  0  0  0  0  0
   -5.8705    0.2310   -1.2752 O   0  0  0  0  0  0  0  0  0  0  0  0
   -3.8818   -2.1385    1.6031 H   0  0  0  0  0  0  0  0  0  0  0  0
   -5.3202   -1.5961    2.4737 H   0  0  0  0  0  0  0  0  0  0  0  0
   -5.4110   -1.9182    0.7393 H   0  0  0  0  0  0  0  0  0  0  0  0
   -5.3218    0.5579    1.2517 H   0  0  0  0  0  0  0  0  0  0  0  0
   -3.8197    0.3244    2.1105 H   0  0  0  0  0  0  0  0  0  0  0  0
   -1.8724    1.9536    0.6449 H   0  0  0  0  0  0  0  0  0  0  0  0
    0.5547    1.6512    0.8900 H   0  0  0  0  0  0  0  0  0  0  0  0
    2.3388    1.1809   -0.3541 H   0  0  0  0  0  0  0  0  0  0  0  0
    4.5851   -1.4588    1.0652 H   0  0  0  0  0  0  0  0  0  0  0  0
    6.6706    2.6577   -0.7814 H   0  0  0  0  0  0  0  0  0  0  0  0
    0.1275   -2.5115   -0.1889 H   0  0  0  0  0  0  0  0  0  0  0  0
   -2.3009   -2.2048   -0.4013 H   0  0  0  0  0  0  0  0  0  0  0  0
   -2.6804    0.6497   -2.7187 H   0  0  0  0  0  0  0  0  0  0  0  0
   -4.2521    0.8414   -3.5394 H   0  0  0  0  0  0  0  0  0  0  0  0
   -3.8246    1.9409   -2.1989 H   0  0  0  0  0  0  0  0  0  0  0  0
  1  2  1  0
  2  3  1  0
  3  4  1  0
  4  5  2  0
  5  6  1  0
  6  7  2  0
  7  8  1  0
  8  9  2  0
  8 10  1  0
 10 11  1  0
 11 12  2  0
 12 13  1  0
 13 14  1  0
 13 15  2  0
 15 16  1  0
 15 17  1  0
 17 18  2  0
 18 19  1  0
  7 20  1  0
 20 21  2  0
  3 22  1  0
 22 23  1  0
 22 24  2  0
 22 25  2  0
 21  4  1  0
 18 11  1  0
  1 26  1  0
  1 27  1  0
  1 28  1  0
  2 29  1  0
  2 30  1  0
  5 31  1  0
  6 32  1  0
 10 33  1  0
 12 34  1  0
 17 35  1  0
 20 36  1  0
 21 37  1  0
 23 38  1  0
 23 39  1  0
 23 40  1  0
M  END
$$$$
