ZINC000016808011


 20 21  0  0  0  0  0  0  0  0999 V2000
   -6.9511   16.5928  -10.5227 C   0  0  0  0  0  0  0  0  0  0  0  0
   -7.6048   16.7375   -9.3058 C   0  0  0  0  0  0  0  0  0  0  0  0
   -8.0635   17.9799   -8.9135 C   0  0  0  0  0  0  0  0  0  0  0  0
   -7.8726   19.0788   -9.7306 C   0  0  0  0  0  0  0  0  0  0  0  0
   -7.2221   18.9382  -10.9431 C   0  0  0  0  0  0  0  0  0  0  0  0
   -6.7563   17.7001  -11.3391 C   0  0  0  0  0  0  0  0  0  0  0  0
   -5.7528   11.1860  -11.1874 C   0  0  0  0  0  0  0  0  0  0  0  0
   -6.2425   12.5057  -10.7671 N   0  0  0  0  0  0  0  0  0  0  0  0
   -7.0427   13.1330  -11.8282 C   0  0  0  0  0  0  0  0  0  0  0  0
   -7.5988   14.4666  -11.3234 C   0  0  0  0  0  0  0  0  0  0  0  0
   -6.4856   15.3381  -10.9224 N   0  0  0  0  0  0  0  0  0  0  0  0
   -5.6853   14.7109   -9.8613 C   0  0  0  0  0  0  0  0  0  0  0  0
   -5.1293   13.3773  -10.3661 C   0  0  0  0  0  0  0  0  0  0  0  0
   -8.8923   18.1647   -7.3696 S   0  0  0  0  0  0  0  0  0  0  0  0
   -9.3335   19.9228   -7.3005 C   0  0  0  0  0  0  0  0  0  0  0  0
  -10.0582   17.3627   -7.4996 O   0  0  0  0  0  0  0  0  0  0  0  0
   -7.8988   17.8614   -6.4000 O   0  0  0  0  0  0  0  0  0  0  0  0
   -6.0604   17.5505  -12.6366 N   0  0  0  0  0  0  0  0  0  0  0  0
   -6.6971   17.2958  -13.6433 O   0  0  0  0  0  0  0  0  0  0  0  0
   -4.8512   17.6824  -12.6979 O   0  0  0  0  0  0  0  0  0  0  0  0
  7  8  1  0  0  0
  8 13  1  0  0  0
  8  9  1  0  0  0
  9 10  1  0  0  0
 10 11  1  0  0  0
 11  1  1  0  0  0
 11 12  1  0  0  0
  1  6  1  0  0  0
  1  2  2  0  0  0
  2  3  1  0  0  0
  3 14  1  0  0  0
  3  4  2  0  0  0
 14 15  1  0  0  0
 14 16  2  0  0  0
 14 17  2  0  0  0
  4  5  1  0  0  0
  5  6  2  0  0  0
  6 18  1  0  0  0
 18 19  1  0  0  0
 18 20  2  0  0  0
 12 13  1  0  0  0
M  CHG 1  18   1
M  CHG 1  19  -1
M  END
> <minimizedAffinity>
-6.58297

$$$$
ZINC000003882566


 24 27  0  0  0  0  0  0  0  0999 V2000
   -7.2385   13.7149   -9.4706 C   0  0  0  0  0  0  0  0  0  0  0  0
   -5.8032   13.9547  -10.0807 C   0  0  0  0  0  0  0  0  0  0  0  0
   -6.0391   15.1628  -10.9956 C   0  0  0  0  0  0  0  0  0  0  0  0
   -6.2057   16.1884  -10.1735 C   0  0  0  0  0  0  0  0  0  0  0  0
   -6.0133   15.6306   -8.7751 C   0  0  0  0  0  0  0  0  0  0  0  0
   -6.1599   16.6716   -7.7089 C   0  0  0  0  0  0  0  0  0  0  0  0
   -7.6330   16.9345   -7.7344 N   0  0  0  0  0  0  0  0  0  0  0  0
   -8.2887   15.8390   -8.2422 C   0  0  0  0  0  0  0  0  0  0  0  0
   -9.4686   15.7654   -8.5135 O   0  0  0  0  0  0  0  0  0  0  0  0
   -7.2774   14.7561   -8.3809 C   0  0  0  0  0  0  0  0  0  0  0  0
   -5.0764   14.5687   -8.9361 O   0  0  0  0  0  0  0  0  0  0  0  0
   -8.2488   18.1159   -7.3064 C   0  0  0  0  0  0  0  0  0  0  0  0
   -8.5490   19.1154   -8.2225 C   0  0  0  0  0  0  0  0  0  0  0  0
   -9.1573   20.2801   -7.7969 C   0  0  0  0  0  0  0  0  0  0  0  0
   -9.4669   20.4517   -6.4602 C   0  0  0  0  0  0  0  0  0  0  0  0
   -9.1692   19.4583   -5.5454 C   0  0  0  0  0  0  0  0  0  0  0  0
   -8.5661   18.2888   -5.9656 C   0  0  0  0  0  0  0  0  0  0  0  0
  -10.1187   21.7011   -6.0076 N   0  0  0  0  0  0  0  0  0  0  0  0
  -11.3242   21.7319   -5.8368 O   0  0  0  0  0  0  0  0  0  0  0  0
   -9.4494   22.6987   -5.8058 O   0  0  0  0  0  0  0  0  0  0  0  0
   -9.4644   13.6418  -10.2674 O   0  0  0  0  0  0  0  0  0  0  0  0
   -8.3120   13.9663  -10.4979 C   0  0  0  0  0  0  0  0  0  0  0  0
   -8.0290   14.4987  -11.5576 O   0  0  0  0  0  0  0  0  0  0  0  0
   -9.4603   13.6440  -10.2655 H   0  0  0  0  0  0  0  0  0  0  0  0
 21 22  2  0  0  0
 22 23  1  0  0  0
 22  1  1  0  0  0
  1 10  1  0  0  0
  1  2  1  0  0  0
  2 11  1  0  0  0
  2  3  1  0  0  0
  3  4  2  0  0  0
  5  4  1  0  0  0
  5 10  1  0  0  0
  5  6  1  0  0  0
  5 11  1  0  0  0
  6  7  1  0  0  0
  7 12  1  0  0  0
  7  8  1  0  0  0
 12 17  1  0  0  0
 12 13  2  0  0  0
 13 14  1  0  0  0
 14 15  2  0  0  0
 15 18  1  0  0  0
 15 16  1  0  0  0
 18 19  1  0  0  0
 18 20  2  0  0  0
 16 17  2  0  0  0
  8  9  2  0  0  0
  8 10  1  0  0  0
 23 24  1  0  0  0
M  CHG 1  18   1
M  CHG 1  19  -1
M  END
> <minimizedAffinity>
-7.76413

$$$$
ZINC000013207652


 21 22  0  0  0  0  0  0  0  0999 V2000
   -8.2567   15.2178   -9.0954 C   0  0  0  0  0  0  0  0  0  0  0  0
   -8.5986   14.2736   -8.0788 O   0  0  0  0  0  0  0  0  0  0  0  0
   -8.3901   15.7772  -12.2354 H   0  0  0  0  0  0  0  0  0  0  0  0
   -7.1495   14.6383   -9.9782 C   0  0  0  0  0  0  0  0  0  0  0  0
   -7.6414   12.5269  -11.2500 C   0  0  0  0  0  0  0  0  0  0  0  0
   -8.3090   12.1979  -12.3220 N   0  0  0  0  0  0  0  0  0  0  0  0
   -8.8568   13.2990  -12.8573 C   0  0  0  0  0  0  0  0  0  0  0  0
   -8.5157   14.3502  -12.0878 C   0  0  0  0  0  0  0  0  0  0  0  0
   -7.7488   13.8602  -11.0653 N   0  0  0  0  0  0  0  0  0  0  0  0
   -6.1641   10.7518  -10.8701 O   0  0  0  0  0  0  0  0  0  0  0  0
   -6.8953   11.5923  -10.3776 N   0  0  0  0  0  0  0  0  0  0  0  0
   -7.0088   11.6669   -9.1672 O   0  0  0  0  0  0  0  0  0  0  0  0
   -7.7649   16.5123   -8.4446 C   0  0  0  0  0  0  0  0  0  0  0  0
   -6.6143   17.0925   -9.2692 C   0  0  0  0  0  0  0  0  0  0  0  0
   -7.0042   18.4070   -9.7967 N   0  0  0  0  0  0  0  0  0  0  0  0
   -8.1423   18.9263   -9.0260 C   0  0  0  0  0  0  0  0  0  0  0  0
   -8.5464   20.2960   -9.5773 C   0  0  0  0  0  0  0  0  0  0  0  0
   -8.8660   20.1698  -10.9656 O   0  0  0  0  0  0  0  0  0  0  0  0
   -7.7954   19.6447  -11.7556 C   0  0  0  0  0  0  0  0  0  0  0  0
   -7.3897   18.2738  -11.2084 C   0  0  0  0  0  0  0  0  0  0  0  0
   -5.5414   13.1221  -11.7541 H   0  0  0  0  0  0  0  0  0  0  0  0
 10 11  1  0  0  0
 11 12  2  0  0  0
 11  5  1  0  0  0
  5  9  1  0  0  0
  5  6  2  0  0  0
  6  7  1  0  0  0
  7  8  2  0  0  0
  8  9  1  0  0  0
  9  4  1  0  0  0
  4  1  1  0  0  0
  1  2  1  0  0  0
  1 13  1  0  0  0
 13 14  1  0  0  0
 14 15  1  0  0  0
 15 20  1  0  0  0
 15 16  1  0  0  0
 16 17  1  0  0  0
 17 18  1  0  0  0
 18 19  1  0  0  0
 19 20  1  0  0  0
  2  3  1  0  0  0
 15 21  1  0  0  0
M  CHG 1  10  -1
M  CHG 1  11   1
M  CHG 1  15   1
M  END
> <minimizedAffinity>
-6.31315

$$$$
ZINC000004430764


 34 36  0  0  0  0  0  0  0  0999 V2000
   -5.5161   16.9443  -13.3439 O   0  0  0  0  0  0  0  0  0  0  0  0
   -6.1915   17.5755  -12.5500 C   0  0  0  0  0  0  0  0  0  0  0  0
   -6.2245   17.1569  -11.2873 N   0  0  0  0  0  0  0  0  0  0  0  0
   -6.9340   17.7889  -10.3673 C   0  0  0  0  0  0  0  0  0  0  0  0
   -7.7007   18.9822  -10.7617 C   0  0  0  0  0  0  0  0  0  0  0  0
   -8.4151   19.6344   -9.8803 N   0  0  0  0  0  0  0  0  0  0  0  0
   -8.4627   19.2299   -8.6041 C   0  0  0  0  0  0  0  0  0  0  0  0
   -9.2376   19.9456   -7.6707 C   0  0  0  0  0  0  0  0  0  0  0  0
   -9.2879   19.5356   -6.3719 C   0  0  0  0  0  0  0  0  0  0  0  0
  -10.2458   20.4230   -5.2279 Cl  0  0  0  0  0  0  0  0  0  0  0  0
   -8.5799   18.4128   -5.9525 C   0  0  0  0  0  0  0  0  0  0  0  0
   -7.8138   17.6941   -6.8429 C   0  0  0  0  0  0  0  0  0  0  0  0
   -7.7446   18.0901   -8.1759 C   0  0  0  0  0  0  0  0  0  0  0  0
   -6.9780   17.3735   -9.0705 N   0  0  0  0  0  0  0  0  0  0  0  0
   -7.6243   19.3986  -12.1797 C   0  0  0  0  0  0  0  0  0  0  0  0
   -8.2269   20.3724  -12.5878 O   0  0  0  0  0  0  0  0  0  0  0  0
   -6.8509   18.6518  -13.0016 N   0  0  0  0  0  0  0  0  0  0  0  0
   -5.5195   16.9440  -13.3402 H   0  0  0  0  0  0  0  0  0  0  0  0
   -6.2284   16.1919   -8.6365 C   0  0  0  0  0  0  0  0  0  0  0  0
   -7.0829   14.9402   -8.8471 C   0  0  0  0  0  0  0  0  0  0  0  0
   -8.3501   15.3146   -9.3913 O   0  0  0  0  0  0  0  0  0  0  0  0
   -9.2735   19.2824  -10.7268 H   0  0  0  0  0  0  0  0  0  0  0  0
   -6.3711   13.9941   -9.8162 C   0  0  0  0  0  0  0  0  0  0  0  0
   -5.2231   13.4325   -9.1767 O   0  0  0  0  0  0  0  0  0  0  0  0
   -8.5583   19.6415  -10.5522 H   0  0  0  0  0  0  0  0  0  0  0  0
   -7.3263   12.8717  -10.2270 C   0  0  0  0  0  0  0  0  0  0  0  0
   -7.0961   11.7256   -9.4051 O   0  0  0  0  0  0  0  0  0  0  0  0
   -8.9729   18.6291   -6.8218 H   0  0  0  0  0  0  0  0  0  0  0  0
   -7.0826   12.5055  -11.6924 C   0  0  0  0  0  0  0  0  0  0  0  0
   -5.9397   11.6529  -11.7867 O   0  0  0  0  0  0  0  0  0  0  0  0
   -4.4207   11.2002   -4.2088 H   0  0  0  0  0  0  0  0  0  0  0  0
   -6.8361   13.7800  -12.5023 C   0  0  0  0  0  0  0  0  0  0  0  0
   -5.5760   13.6843  -13.1691 O   0  0  0  0  0  0  0  0  0  0  0  0
  -11.0595   12.1709   -4.7020 H   0  0  0  0  0  0  0  0  0  0  0  0
  1  2  2  0  0  0
  2 17  1  0  0  0
  2  3  1  0  0  0
  3  4  2  0  0  0
  4 14  1  0  0  0
  4  5  1  0  0  0
  5  6  2  0  0  0
  5 15  1  0  0  0
  6  7  1  0  0  0
  7 13  2  0  0  0
  7  8  1  0  0  0
  8  9  2  0  0  0
  9 10  1  0  0  0
  9 11  1  0  0  0
 11 12  2  0  0  0
 12 13  1  0  0  0
 13 14  1  0  0  0
 14 19  1  0  0  0
 19 20  1  0  0  0
 20 21  1  0  0  0
 20 23  1  0  0  0
 23 24  1  0  0  0
 23 26  1  0  0  0
 26 27  1  0  0  0
 26 29  1  0  0  0
 29 30  1  0  0  0
 29 32  1  0  0  0
 32 33  1  0  0  0
 15 16  2  0  0  0
 15 17  1  0  0  0
 21 22  1  0  0  0
 24 25  1  0  0  0
 27 28  1  0  0  0
 30 31  1  0  0  0
 33 34  1  0  0  0
 17 18  1  0  0  0
M  END
> <minimizedAffinity>
-8.93772

$$$$
ZINC000011693204


 20 22  0  0  0  0  0  0  0  0999 V2000
   -6.3201   13.9780  -11.0832 C   0  0  0  0  0  0  0  0  0  0  0  0
   -7.5334   13.9603  -11.1636 O   0  0  0  0  0  0  0  0  0  0  0  0
   -5.6861   15.1065  -10.7076 N   0  0  0  0  0  0  0  0  0  0  0  0
   -4.8794   10.7499  -11.9549 H   0  0  0  0  0  0  0  0  0  0  0  0
   -6.4170   16.2470  -10.4128 C   0  0  0  0  0  0  0  0  0  0  0  0
   -6.7350   17.2179  -11.3161 C   0  0  0  0  0  0  0  0  0  0  0  0
   -7.5125   18.3105  -10.7402 C   0  0  0  0  0  0  0  0  0  0  0  0
   -7.7531   18.1340   -9.4433 C   0  0  0  0  0  0  0  0  0  0  0  0
   -8.5654   19.2983   -8.8893 C   0  0  0  0  0  0  0  0  0  0  0  0
   -8.4070   20.4234   -9.9319 C   0  0  0  0  0  0  0  0  0  0  0  0
   -8.1358   19.6188  -11.2189 C   0  0  0  0  0  0  0  0  0  0  0  0
   -7.0450   16.6216   -8.8771 S   0  0  0  0  0  0  0  0  0  0  0  0
   -6.3453   17.1698  -12.6931 C   0  0  0  0  0  0  0  0  0  0  0  0
   -6.0361   17.1316  -13.7856 N   0  0  0  0  0  0  0  0  0  0  0  0
   -4.5441    9.2420  -11.3942 C   0  0  0  0  0  0  0  0  0  0  0  0
   -4.7595   10.7261  -11.5439 C   0  0  0  0  0  0  0  0  0  0  0  0
   -4.0341   11.5507  -12.2420 N   0  0  0  0  0  0  0  0  0  0  0  0
   -4.4477   12.6847  -12.1760 O   0  0  0  0  0  0  0  0  0  0  0  0
   -5.5428   12.7652  -11.3967 C   0  0  0  0  0  0  0  0  0  0  0  0
   -5.7916   11.4925  -10.9590 C   0  0  0  0  0  0  0  0  0  0  0  0
 15 16  1  0  0  0
 16 20  1  0  0  0
 16 17  2  0  0  0
 17 18  1  0  0  0
 18 19  1  0  0  0
 19  1  1  0  0  0
 19 20  2  0  0  0
  1  2  2  0  0  0
  1  3  1  0  0  0
  3  5  1  0  0  0
  5 12  1  0  0  0
  5  6  2  0  0  0
  6 13  1  0  0  0
  6  7  1  0  0  0
 13 14  3  0  0  0
  7 11  1  0  0  0
  7  8  2  0  0  0
  8  9  1  0  0  0
  8 12  1  0  0  0
  9 10  1  0  0  0
 10 11  1  0  0  0
  3  4  1  0  0  0
M  END
> <minimizedAffinity>
-7.41396

$$$$
ZINC000329036438


 31 32  0  0  0  0  0  0  0  0999 V2000
   -9.0975   19.3025   -8.5055 C   0  0  0  0  0  0  0  0  0  0  0  0
   -9.3584   20.1886   -7.5557 N   0  0  0  0  0  0  0  0  0  0  0  0
   -9.3681   19.8353   -6.2785 C   0  0  0  0  0  0  0  0  0  0  0  0
   -9.1020   18.5237   -5.9383 C   0  0  0  0  0  0  0  0  0  0  0  0
   -8.8305   17.6119   -6.9612 C   0  0  0  0  0  0  0  0  0  0  0  0
   -8.8423   18.0342   -8.2214 N   0  0  0  0  0  0  0  0  0  0  0  0
   -9.6669   20.8539   -5.2090 C   0  0  0  0  0  0  0  0  0  0  0  0
   -9.1879   22.1057   -5.6101 F   0  0  0  0  0  0  0  0  0  0  0  0
  -11.0493   20.9264   -5.0071 F   0  0  0  0  0  0  0  0  0  0  0  0
   -9.0408   20.4753   -4.0165 F   0  0  0  0  0  0  0  0  0  0  0  0
   -9.0973   19.7112   -9.8277 N   0  0  0  0  0  0  0  0  0  0  0  0
   -6.9454   20.1991  -14.2461 H   0  0  0  0  0  0  0  0  0  0  0  0
   -7.8308   20.0001  -10.5050 C   0  0  0  0  0  0  0  0  0  0  0  0
   -7.5364   18.9002  -11.5270 C   0  0  0  0  0  0  0  0  0  0  0  0
   -6.3931   18.0215  -11.0155 C   0  0  0  0  0  0  0  0  0  0  0  0
   -5.1530   16.1826  -11.9295 C   0  0  0  0  0  0  0  0  0  0  0  0
   -5.5757   17.5721  -12.1503 N   0  0  0  0  0  0  0  0  0  0  0  0
   -6.3665   17.6528  -13.3857 C   0  0  0  0  0  0  0  0  0  0  0  0
   -5.4121   18.5182  -12.2928 H   0  0  0  0  0  0  0  0  0  0  0  0
   -8.5579   16.2852   -6.6666 N   0  0  0  0  0  0  0  0  0  0  0  0
   -6.2262   23.9730  -11.8750 H   0  0  0  0  0  0  0  0  0  0  0  0
   -7.5843   15.5926   -7.3948 C   0  0  0  0  0  0  0  0  0  0  0  0
   -6.2387   15.7746   -7.1047 C   0  0  0  0  0  0  0  0  0  0  0  0
   -5.2792   15.0896   -7.8246 C   0  0  0  0  0  0  0  0  0  0  0  0
   -5.6584   14.2219   -8.8346 C   0  0  0  0  0  0  0  0  0  0  0  0
   -4.7184   13.5529   -9.5374 F   0  0  0  0  0  0  0  0  0  0  0  0
   -7.0001   14.0384   -9.1253 C   0  0  0  0  0  0  0  0  0  0  0  0
   -7.9628   14.7176   -8.4050 C   0  0  0  0  0  0  0  0  0  0  0  0
   -7.4025   13.1094  -10.2050 N   0  0  0  0  0  0  0  0  0  0  0  0
   -7.7281   13.5463  -11.2944 O   0  0  0  0  0  0  0  0  0  0  0  0
   -7.4080   11.9081  -10.0043 O   0  0  0  0  0  0  0  0  0  0  0  0
 16 17  1  0  0  0
 17 18  1  0  0  0
 17 15  1  0  0  0
 15 14  1  0  0  0
 14 13  1  0  0  0
 13 11  1  0  0  0
 11  1  1  0  0  0
  1  6  2  0  0  0
  1  2  1  0  0  0
  2  3  2  0  0  0
  3  7  1  0  0  0
  3  4  1  0  0  0
  7  8  1  0  0  0
  7  9  1  0  0  0
  7 10  1  0  0  0
  4  5  2  0  0  0
  5 20  1  0  0  0
  5  6  1  0  0  0
 20 22  1  0  0  0
 22 28  1  0  0  0
 22 23  2  0  0  0
 23 24  1  0  0  0
 24 25  2  0  0  0
 25 26  1  0  0  0
 25 27  1  0  0  0
 27 29  1  0  0  0
 27 28  2  0  0  0
 29 30  1  0  0  0
 29 31  2  0  0  0
 17 19  1  0  0  0
 11 12  1  0  0  0
 20 21  1  0  0  0
M  CHG 1  17   1
M  CHG 1  29   1
M  CHG 1  30  -1
M  END
> <minimizedAffinity>
-7.15413

$$$$
ZINC000039716155


 27 28  0  0  0  0  0  0  0  0999 V2000
   -7.7583   17.0604   -7.8555 N   0  0  0  0  0  0  0  0  0  0  0  0
  -10.5811   15.1985  -11.5156 H   0  0  0  0  0  0  0  0  0  0  0  0
   -7.4611   14.0927   -9.9927 C   0  0  0  0  0  0  0  0  0  0  0  0
   -7.5941   14.8831   -8.8653 C   0  0  0  0  0  0  0  0  0  0  0  0
   -7.6246   16.2670   -8.9889 C   0  0  0  0  0  0  0  0  0  0  0  0
   -7.5211   16.8631  -10.2461 C   0  0  0  0  0  0  0  0  0  0  0  0
   -7.5599   18.5929  -10.3873 Cl  0  0  0  0  0  0  0  0  0  0  0  0
   -7.3890   16.0936  -11.3653 C   0  0  0  0  0  0  0  0  0  0  0  0
   -7.3522   14.6971  -11.2571 C   0  0  0  0  0  0  0  0  0  0  0  0
   -7.2102   13.8685  -12.4602 C   0  0  0  0  0  0  0  0  0  0  0  0
   -6.1126   13.7341  -12.9848 O   0  0  0  0  0  0  0  0  0  0  0  0
   -8.1896   13.3119  -12.9391 O   0  0  0  0  0  0  0  0  0  0  0  0
  -10.6338   14.5743  -11.0589 H   0  0  0  0  0  0  0  0  0  0  0  0
   -6.2703   12.1682   -9.2717 C   0  0  0  0  0  0  0  0  0  0  0  0
   -7.4303   12.7416   -9.8780 O   0  0  0  0  0  0  0  0  0  0  0  0
   -9.0539   16.8502   -6.8458 S   0  0  0  0  0  0  0  0  0  0  0  0
  -10.1509   16.4839   -7.6717 O   0  0  0  0  0  0  0  0  0  0  0  0
   -8.5945   16.0510   -5.7644 O   0  0  0  0  0  0  0  0  0  0  0  0
   -9.4473   18.4276   -6.1667 C   0  0  0  0  0  0  0  0  0  0  0  0
   -8.8619   19.5680   -6.6835 C   0  0  0  0  0  0  0  0  0  0  0  0
   -9.1705   20.8059   -6.1506 C   0  0  0  0  0  0  0  0  0  0  0  0
  -10.0649   20.9030   -5.1013 C   0  0  0  0  0  0  0  0  0  0  0  0
  -10.6513   19.7624   -4.5849 C   0  0  0  0  0  0  0  0  0  0  0  0
  -10.3460   18.5253   -5.1205 C   0  0  0  0  0  0  0  0  0  0  0  0
  -10.9737   17.3042   -4.5677 N   0  0  0  0  0  0  0  0  0  0  0  0
  -12.0008   16.8715   -5.0591 O   0  0  0  0  0  0  0  0  0  0  0  0
  -10.4632   16.7319   -3.6214 O   0  0  0  0  0  0  0  0  0  0  0  0
 14 15  1  0  0  0
 15  3  1  0  0  0
  3  9  2  0  0  0
  3  4  1  0  0  0
  4  5  2  0  0  0
  5  1  1  0  0  0
  5  6  1  0  0  0
  1 16  1  0  0  0
 16 17  2  0  0  0
 16 18  2  0  0  0
 16 19  1  0  0  0
 19 24  1  0  0  0
 19 20  2  0  0  0
 20 21  1  0  0  0
 21 22  2  0  0  0
 22 23  1  0  0  0
 23 24  2  0  0  0
 24 25  1  0  0  0
 25 26  1  0  0  0
 25 27  2  0  0  0
  6  7  1  0  0  0
  6  8  2  0  0  0
  8  9  1  0  0  0
  9 10  1  0  0  0
 10 11  2  0  0  0
 10 12  1  0  0  0
  1  2  1  0  0  0
 12 13  1  0  0  0
M  CHG 1  25   1
M  CHG 1  26  -1
M  END
> <minimizedAffinity>
-7.56740

$$$$
ZINC000253530802


 32 35  0  0  0  0  0  0  0  0999 V2000
   -8.2619   13.5906  -11.3765 C   0  0  0  0  0  0  0  0  0  0  0  0
   -7.6314   14.8724  -11.3365 O   0  0  0  0  0  0  0  0  0  0  0  0
   -6.4531   14.9182  -10.5292 C   0  0  0  0  0  0  0  0  0  0  0  0
   -5.4125   13.9466  -11.0921 C   0  0  0  0  0  0  0  0  0  0  0  0
   -4.2549   13.9487  -10.2543 O   0  0  0  0  0  0  0  0  0  0  0  0
   -6.0119   12.5376  -11.1356 C   0  0  0  0  0  0  0  0  0  0  0  0
   -5.0727   11.6367  -11.7260 O   0  0  0  0  0  0  0  0  0  0  0  0
   -7.2941   12.5655  -11.9732 C   0  0  0  0  0  0  0  0  0  0  0  0
   -7.9001   11.2714  -11.9620 O   0  0  0  0  0  0  0  0  0  0  0  0
  -10.2366   12.7030  -12.3179 H   0  0  0  0  0  0  0  0  0  0  0  0
  -10.2366   12.7030  -12.3179 H   0  0  0  0  0  0  0  0  0  0  0  0
  -10.2366   12.7030  -12.3179 H   0  0  0  0  0  0  0  0  0  0  0  0
  -10.6008   13.7235  -11.7039 O   0  0  0  0  0  0  0  0  0  0  0  0
   -9.5020   13.6669  -12.2293 C   0  0  0  0  0  0  0  0  0  0  0  0
   -9.4063   13.6768  -13.4447 O   0  0  0  0  0  0  0  0  0  0  0  0
  -10.5961   13.7253  -11.7038 H   0  0  0  0  0  0  0  0  0  0  0  0
   -5.9209   16.2443  -10.5376 O   0  0  0  0  0  0  0  0  0  0  0  0
   -6.6756   17.2141   -9.9646 C   0  0  0  0  0  0  0  0  0  0  0  0
   -7.1670   18.2639  -10.7471 C   0  0  0  0  0  0  0  0  0  0  0  0
   -7.9253   19.2450  -10.1905 C   0  0  0  0  0  0  0  0  0  0  0  0
   -8.2234   19.2094   -8.8108 C   0  0  0  0  0  0  0  0  0  0  0  0
   -8.9692   20.1754   -8.2694 N   0  0  0  0  0  0  0  0  0  0  0  0
   -9.2553   20.1540   -6.9810 C   0  0  0  0  0  0  0  0  0  0  0  0
  -10.0710   21.2011   -6.3666 C   0  0  0  0  0  0  0  0  0  0  0  0
  -10.3366   21.1338   -5.0424 C   0  0  0  0  0  0  0  0  0  0  0  0
   -9.8376   20.0709   -4.2530 C   0  0  0  0  0  0  0  0  0  0  0  0
  -10.0972   20.0417   -3.0582 O   0  0  0  0  0  0  0  0  0  0  0  0
   -9.0534   19.0501   -4.8079 C   0  0  0  0  0  0  0  0  0  0  0  0
   -8.7506   19.0614   -6.1371 C   0  0  0  0  0  0  0  0  0  0  0  0
   -7.9981   18.0900   -6.6955 O   0  0  0  0  0  0  0  0  0  0  0  0
   -7.7259   18.1460   -8.0187 C   0  0  0  0  0  0  0  0  0  0  0  0
   -6.9587   17.1542   -8.6092 C   0  0  0  0  0  0  0  0  0  0  0  0
 13 14  2  0  0  0
 14 15  1  0  0  0
 14  1  1  0  0  0
  1  8  1  0  0  0
  1  2  1  0  0  0
  2  3  1  0  0  0
  3 17  1  0  0  0
  3  4  1  0  0  0
 17 18  1  0  0  0
 18 32  1  0  0  0
 18 19  2  0  0  0
 19 20  1  0  0  0
 20 21  2  0  0  0
 21 31  1  0  0  0
 21 22  1  0  0  0
 22 23  2  0  0  0
 23 29  1  0  0  0
 23 24  1  0  0  0
 24 25  2  0  0  0
 25 26  1  0  0  0
 26 27  2  0  0  0
 26 28  1  0  0  0
 28 29  2  0  0  0
 29 30  1  0  0  0
 30 31  1  0  0  0
 31 32  2  0  0  0
  4  5  1  0  0  0
  4  6  1  0  0  0
  6  7  1  0  0  0
  6  8  1  0  0  0
  8  9  1  0  0  0
 15 16  1  0  0  0
  5 10  1  0  0  0
  7 11  1  0  0  0
  9 12  1  0  0  0
M  END
> <minimizedAffinity>
-9.16474

$$$$
ZINC000009329177


 35 40  0  0  0  0  0  0  0  0999 V2000
  -14.4355   10.8345    0.1662 C   0  0  0  0  0  0  0  0  0  0  0  0
  -13.5277   11.1850   -0.9845 C   0  0  0  0  0  0  0  0  0  0  0  0
  -13.7906   10.6925   -2.2494 C   0  0  0  0  0  0  0  0  0  0  0  0
  -12.9622   11.0093   -3.3065 C   0  0  0  0  0  0  0  0  0  0  0  0
  -11.8539   11.8283   -3.1071 C   0  0  0  0  0  0  0  0  0  0  0  0
  -10.8815   12.2823   -4.0008 N   0  0  0  0  0  0  0  0  0  0  0  0
   -9.9655   13.0661   -3.4000 C   0  0  0  0  0  0  0  0  0  0  0  0
   -9.0105   13.5975   -3.9260 O   0  0  0  0  0  0  0  0  0  0  0  0
  -10.3567   13.1545   -1.9502 C   0  0  0  0  0  0  0  0  0  0  0  0
  -11.6001   12.3196   -1.8295 C   0  0  0  0  0  0  0  0  0  0  0  0
  -12.4321   12.0051   -0.7789 C   0  0  0  0  0  0  0  0  0  0  0  0
  -10.6512   14.6256   -1.5591 C   0  0  0  0  0  0  0  0  0  0  0  0
  -10.7661   15.4719   -2.8015 C   0  0  0  0  0  0  0  0  0  0  0  0
  -11.6229   15.3541   -3.6509 O   0  0  0  0  0  0  0  0  0  0  0  0
   -9.7771   16.3722   -2.8228 N   0  0  0  0  0  0  0  0  0  0  0  0
   -8.9259   16.2882   -1.7955 C   0  0  0  0  0  0  0  0  0  0  0  0
   -7.9843   17.0279   -1.6064 O   0  0  0  0  0  0  0  0  0  0  0  0
   -9.3231   15.1230   -0.8877 C   0  0  0  0  0  0  0  0  0  0  0  0
   -8.3679   13.9614   -1.1052 C   0  0  0  0  0  0  0  0  0  0  0  0
   -7.3102   13.6199   -0.0739 C   0  0  0  0  0  0  0  0  0  0  0  0
   -7.2206   12.0658   -0.1639 C   0  0  0  0  0  0  0  0  0  0  0  0
   -8.3697   11.6632   -1.1434 C   0  0  0  0  0  0  0  0  0  0  0  0
   -9.3117   12.7732   -1.0440 N   0  0  0  0  0  0  0  0  0  0  0  0
  -13.5094   11.1959   -0.9344 H   0  0  0  0  0  0  0  0  0  0  0  0
  -13.5094   11.1959   -0.9344 H   0  0  0  0  0  0  0  0  0  0  0  0
   -9.6442   17.3274   -3.8405 C   0  0  0  0  0  0  0  0  0  0  0  0
   -8.9978   16.9975   -5.0237 C   0  0  0  0  0  0  0  0  0  0  0  0
   -8.8687   17.9407   -6.0247 C   0  0  0  0  0  0  0  0  0  0  0  0
   -9.3825   19.2121   -5.8490 C   0  0  0  0  0  0  0  0  0  0  0  0
  -10.0270   19.5437   -4.6711 C   0  0  0  0  0  0  0  0  0  0  0  0
  -10.1638   18.6035   -3.6689 C   0  0  0  0  0  0  0  0  0  0  0  0
  -10.8662   18.9656   -2.3857 C   0  0  0  0  0  0  0  0  0  0  0  0
   -9.2431   20.2203   -6.9238 N   0  0  0  0  0  0  0  0  0  0  0  0
   -8.9980   19.8659   -8.0630 O   0  0  0  0  0  0  0  0  0  0  0  0
   -9.3734   21.4041   -6.6689 O   0  0  0  0  0  0  0  0  0  0  0  0
  1  2  1  0  0  0
  2 11  2  0  0  0
  2  3  1  0  0  0
  3  4  2  0  0  0
  4  5  1  0  0  0
  5 10  2  0  0  0
  5  6  1  0  0  0
  6  7  1  0  0  0
  7  8  2  0  0  0
  9  7  1  0  0  0
  9 23  1  0  0  0
  9 10  1  0  0  0
  9 12  1  0  0  0
 10 11  1  0  0  0
 12 18  1  0  0  0
 12 13  1  0  0  0
 13 14  2  0  0  0
 13 15  1  0  0  0
 15 26  1  0  0  0
 15 16  1  0  0  0
 26 31  1  0  0  0
 26 27  2  0  0  0
 27 28  1  0  0  0
 28 29  2  0  0  0
 29 33  1  0  0  0
 29 30  1  0  0  0
 33 34  1  0  0  0
 33 35  2  0  0  0
 30 31  2  0  0  0
 31 32  1  0  0  0
 16 17  2  0  0  0
 16 18  1  0  0  0
 18 19  1  0  0  0
 19 23  1  0  0  0
 19 20  1  0  0  0
 20 21  1  0  0  0
 21 22  1  0  0  0
 22 23  1  0  0  0
  6 24  1  0  0  0
 23 25  1  0  0  0
M  CHG 1  23   1
M  CHG 1  33   1
M  CHG 1  34  -1
M  END
> <minimizedAffinity>
-6.32370

$$$$
ZINC000004150712


 26 29  0  0  0  0  0  0  0  0999 V2000
  -11.7833   17.0836   -3.7683 C   0  0  0  0  0  0  0  0  0  0  0  0
  -10.7257   16.6067   -4.6695 N   0  0  0  0  0  0  0  0  0  0  0  0
   -9.6464   16.0001   -3.8785 C   0  0  0  0  0  0  0  0  0  0  0  0
   -8.7090   15.2232   -4.8088 C   0  0  0  0  0  0  0  0  0  0  0  0
   -8.3167   16.1420   -5.9571 C   0  0  0  0  0  0  0  0  0  0  0  0
   -8.9901   17.2677   -6.2321 C   0  0  0  0  0  0  0  0  0  0  0  0
  -10.1955   17.7382   -5.4430 C   0  0  0  0  0  0  0  0  0  0  0  0
   -8.2868   18.0984   -7.6089 S   0  0  0  0  0  0  0  0  0  0  0  0
   -7.0860   16.9215   -7.8120 C   0  0  0  0  0  0  0  0  0  0  0  0
   -7.2083   15.9202   -6.8571 C   0  0  0  0  0  0  0  0  0  0  0  0
   -6.2463   14.7977   -6.8521 C   0  0  0  0  0  0  0  0  0  0  0  0
   -6.1956   14.0075   -5.9273 O   0  0  0  0  0  0  0  0  0  0  0  0
   -5.4261   14.6879   -7.9206 N   0  0  0  0  0  0  0  0  0  0  0  0
   -5.5604   15.5286   -9.1059 C   0  0  0  0  0  0  0  0  0  0  0  0
   -6.0744   16.8634   -8.7663 N   0  0  0  0  0  0  0  0  0  0  0  0
  -10.7285   16.6056   -4.6655 H   0  0  0  0  0  0  0  0  0  0  0  0
  -10.7285   16.6056   -4.6655 H   0  0  0  0  0  0  0  0  0  0  0  0
  -10.7285   16.6056   -4.6655 H   0  0  0  0  0  0  0  0  0  0  0  0
   -6.5096   14.8684  -10.0725 C   0  0  0  0  0  0  0  0  0  0  0  0
   -7.3655   15.5041  -10.8927 C   0  0  0  0  0  0  0  0  0  0  0  0
   -8.0560   14.5058  -11.6176 C   0  0  0  0  0  0  0  0  0  0  0  0
   -7.5809   13.3198  -11.1969 C   0  0  0  0  0  0  0  0  0  0  0  0
   -6.6403   13.5457  -10.2652 O   0  0  0  0  0  0  0  0  0  0  0  0
   -8.0163   11.9910  -11.6831 N   0  0  0  0  0  0  0  0  0  0  0  0
   -8.5631   11.8881  -12.7665 O   0  0  0  0  0  0  0  0  0  0  0  0
   -7.8276   11.0006  -10.9996 O   0  0  0  0  0  0  0  0  0  0  0  0
  1  2  1  0  0  0
  2  7  1  0  0  0
  2  3  1  0  0  0
  3  4  1  0  0  0
  4  5  1  0  0  0
  5 10  1  0  0  0
  5  6  2  0  0  0
  6  7  1  0  0  0
  6  8  1  0  0  0
  8  9  1  0  0  0
  9 15  1  0  0  0
  9 10  2  0  0  0
 10 11  1  0  0  0
 11 12  2  0  0  0
 11 13  1  0  0  0
 13 14  1  0  0  0
 14 19  1  0  0  0
 14 15  1  0  0  0
 19 23  1  0  0  0
 19 20  2  0  0  0
 20 21  1  0  0  0
 21 22  2  0  0  0
 22 24  1  0  0  0
 22 23  1  0  0  0
 24 25  1  0  0  0
 24 26  2  0  0  0
  2 16  1  0  0  0
 13 17  1  0  0  0
 15 18  1  0  0  0
M  CHG 1   2   1
M  CHG 1  24   1
M  CHG 1  25  -1
M  END
> <minimizedAffinity>
-7.09974

$$$$
ZINC000223846646


 18 19  0  0  0  0  0  0  0  0999 V2000
   -7.9953   16.1521   -8.7210 C   0  0  0  0  0  0  0  0  0  0  0  0
   -8.0278   14.8468   -9.2230 C   0  0  0  0  0  0  0  0  0  0  0  0
   -8.7656   14.0558   -8.4613 N   0  0  0  0  0  0  0  0  0  0  0  0
   -9.3327   14.5234   -7.4228 N   0  0  0  0  0  0  0  0  0  0  0  0
   -8.9992   16.0448   -7.2633 S   0  0  0  0  0  0  0  0  0  0  0  0
   -7.3289   14.4086  -10.4446 C   0  0  0  0  0  0  0  0  0  0  0  0
   -7.9159   14.1783  -11.6390 C   0  0  0  0  0  0  0  0  0  0  0  0
   -7.0542   13.7753  -12.6355 C   0  0  0  0  0  0  0  0  0  0  0  0
   -5.7715   13.6742  -12.2696 C   0  0  0  0  0  0  0  0  0  0  0  0
   -5.6001   14.1122  -10.5750 S   0  0  0  0  0  0  0  0  0  0  0  0
   -7.2981   17.3193   -9.2629 C   0  0  0  0  0  0  0  0  0  0  0  0
   -6.4734   17.9034   -8.5861 O   0  0  0  0  0  0  0  0  0  0  0  0
   -7.5703   17.7474  -10.5130 O   0  0  0  0  0  0  0  0  0  0  0  0
   -6.5834   18.5621  -11.1490 C   0  0  0  0  0  0  0  0  0  0  0  0
   -5.6869   17.6858  -12.0260 C   0  0  0  0  0  0  0  0  0  0  0  0
   -6.4487   17.2804  -13.2895 C   0  0  0  0  0  0  0  0  0  0  0  0
   -7.2698   19.4518  -14.5592 C   0  0  0  0  0  0  0  0  0  0  0  0
   -6.9056   18.4884  -13.9958 C   0  0  0  0  0  0  0  0  0  0  0  0
 17 18  3  0  0  0
 18 16  1  0  0  0
 16 15  1  0  0  0
 15 14  1  0  0  0
 14 13  1  0  0  0
 13 11  1  0  0  0
 11 12  2  0  0  0
 11  1  1  0  0  0
  1  5  1  0  0  0
  1  2  2  0  0  0
  2  6  1  0  0  0
  2  3  1  0  0  0
  6 10  1  0  0  0
  6  7  2  0  0  0
  7  8  1  0  0  0
  8  9  2  0  0  0
  9 10  1  0  0  0
  3  4  2  0  0  0
  4  5  1  0  0  0
M  END
> <minimizedAffinity>
-6.10516

$$$$
ZINC000096013399


 18 19  0  0  0  0  0  0  0  0999 V2000
   -6.8472   18.3726   -9.2830 C   0  0  0  0  0  0  0  0  0  0  0  0
   -7.4370   19.2615  -10.3475 C   0  0  0  0  0  0  0  0  0  0  0  0
   -8.0000   20.2895  -10.0356 O   0  0  0  0  0  0  0  0  0  0  0  0
   -7.3388   18.9142  -11.6460 N   0  0  0  0  0  0  0  0  0  0  0  0
   -7.8552   19.6766  -12.7926 C   0  0  0  0  0  0  0  0  0  0  0  0
   -6.9898   19.4098  -14.0391 C   0  0  0  0  0  0  0  0  0  0  0  0
   -6.7900   17.8667  -14.0449 C   0  0  0  0  0  0  0  0  0  0  0  0
   -6.6020   17.5425  -12.2495 S   0  0  0  0  0  0  0  0  0  0  0  0
   -5.2421   17.6376  -11.8487 O   0  0  0  0  0  0  0  0  0  0  0  0
   -7.4324   16.4681  -11.8306 O   0  0  0  0  0  0  0  0  0  0  0  0
   -8.5840   18.2693   -7.6315 C   0  0  0  0  0  0  0  0  0  0  0  0
   -7.9048   17.5323   -8.7055 N   0  0  0  0  0  0  0  0  0  0  0  0
   -7.9041   17.5352   -8.7015 H   0  0  0  0  0  0  0  0  0  0  0  0
   -7.3110   16.3054   -8.1579 C   0  0  0  0  0  0  0  0  0  0  0  0
   -5.9108   16.1274   -8.7468 C   0  0  0  0  0  0  0  0  0  0  0  0
   -5.5785   14.6131   -8.8081 C   0  0  0  0  0  0  0  0  0  0  0  0
   -7.1847   13.9274   -9.3871 S   0  0  0  0  0  0  0  0  0  0  0  0
   -8.2354   15.1196   -8.4774 C   0  0  0  0  0  0  0  0  0  0  0  0
 11 12  1  0  0  0
 12  1  1  0  0  0
 12 14  1  0  0  0
  1  2  1  0  0  0
  2  3  2  0  0  0
  2  4  1  0  0  0
  4  8  1  0  0  0
  4  5  1  0  0  0
  5  6  1  0  0  0
  6  7  1  0  0  0
  7  8  1  0  0  0
  8  9  2  0  0  0
  8 10  2  0  0  0
 14 18  1  0  0  0
 14 15  1  0  0  0
 15 16  1  0  0  0
 16 17  1  0  0  0
 17 18  1  0  0  0
 12 13  1  0  0  0
M  CHG 1  12   1
M  END
> <minimizedAffinity>
-6.78318

$$$$
ZINC000001637108


 22 22  0  0  0  0  0  0  0  0999 V2000
   -7.4691   13.9698  -10.4628 C   0  0  0  0  0  0  0  0  0  0  0  0
   -8.4753   14.8940  -10.2373 C   0  0  0  0  0  0  0  0  0  0  0  0
   -8.6449   15.4243   -8.9995 N   0  0  0  0  0  0  0  0  0  0  0  0
   -9.3019   14.7807   -7.8488 C   0  0  0  0  0  0  0  0  0  0  0  0
   -9.2000   15.8221   -6.7520 C   0  0  0  0  0  0  0  0  0  0  0  0
   -9.6092   15.7301   -5.6145 O   0  0  0  0  0  0  0  0  0  0  0  0
   -8.5591   16.8712   -7.3042 N   0  0  0  0  0  0  0  0  0  0  0  0
   -8.2407   16.6378   -8.5826 C   0  0  0  0  0  0  0  0  0  0  0  0
   -7.4205   17.7621   -9.5796 S   0  0  0  0  0  0  0  0  0  0  0  0
   -9.5295    9.6048  -13.4251 H   0  0  0  0  0  0  0  0  0  0  0  0
   -7.1998   13.4985  -11.8213 C   0  0  0  0  0  0  0  0  0  0  0  0
   -7.8878   12.6232  -12.3083 O   0  0  0  0  0  0  0  0  0  0  0  0
   -6.0803   14.0926  -12.6089 C   0  0  0  0  0  0  0  0  0  0  0  0
   -5.1920   13.3827  -13.0306 O   0  0  0  0  0  0  0  0  0  0  0  0
   -6.0564   15.4159  -12.8513 O   0  0  0  0  0  0  0  0  0  0  0  0
   -5.0984   17.6437  -12.6288 C   0  0  0  0  0  0  0  0  0  0  0  0
   -5.0890   16.2046  -12.1094 C   0  0  0  0  0  0  0  0  0  0  0  0
   -6.6715   13.4624   -9.3372 C   0  0  0  0  0  0  0  0  0  0  0  0
   -6.9542   12.3976   -8.8232 O   0  0  0  0  0  0  0  0  0  0  0  0
   -5.6267   14.1777   -8.8747 O   0  0  0  0  0  0  0  0  0  0  0  0
   -5.5532   14.3848   -7.4395 C   0  0  0  0  0  0  0  0  0  0  0  0
   -5.1014   15.8183   -7.1535 C   0  0  0  0  0  0  0  0  0  0  0  0
 16 17  1  0  0  0
 17 15  1  0  0  0
 15 13  1  0  0  0
 13 14  2  0  0  0
 13 11  1  0  0  0
 11 12  2  0  0  0
 11  1  1  0  0  0
  1  2  2  0  0  0
  1 18  1  0  0  0
  2  3  1  0  0  0
  3  8  1  0  0  0
  3  4  1  0  0  0
  4  5  1  0  0  0
  5  6  2  0  0  0
  5  7  1  0  0  0
  7  8  1  0  0  0
  8  9  2  0  0  0
 18 19  2  0  0  0
 18 20  1  0  0  0
 20 21  1  0  0  0
 21 22  1  0  0  0
  7 10  1  0  0  0
M  END
> <minimizedAffinity>
-6.01513

$$$$
ZINC000169801407


 15 15  0  0  0  0  0  0  0  0999 V2000
   -6.7249   17.2805  -11.2494 C   0  0  0  0  0  0  0  0  0  0  0  0
   -6.9556   18.2974  -10.3209 C   0  0  0  0  0  0  0  0  0  0  0  0
   -7.6142   18.0146   -9.1423 C   0  0  0  0  0  0  0  0  0  0  0  0
   -8.0454   16.7259   -8.8790 C   0  0  0  0  0  0  0  0  0  0  0  0
   -9.0447   16.3065   -7.0861 I   0  0  0  0  0  0  0  0  0  0  0  0
   -7.8198   15.7130   -9.7956 C   0  0  0  0  0  0  0  0  0  0  0  0
   -7.1677   15.9835  -10.9801 C   0  0  0  0  0  0  0  0  0  0  0  0
   -6.9229   14.8798  -11.9766 C   0  0  0  0  0  0  0  0  0  0  0  0
   -8.2843   14.3377   -9.5058 N   0  0  0  0  0  0  0  0  0  0  0  0
   -7.5804   13.5802   -8.8622 O   0  0  0  0  0  0  0  0  0  0  0  0
   -9.3703   13.9637   -9.9109 O   0  0  0  0  0  0  0  0  0  0  0  0
   -6.0209   17.5763  -12.5136 C   0  0  0  0  0  0  0  0  0  0  0  0
   -4.8068   17.6042  -12.5405 O   0  0  0  0  0  0  0  0  0  0  0  0
   -6.9645   19.2049  -13.9821 C   0  0  0  0  0  0  0  0  0  0  0  0
   -6.7252   17.8150  -13.6369 O   0  0  0  0  0  0  0  0  0  0  0  0
 14 15  1  0  0  0
 15 12  1  0  0  0
 12 13  2  0  0  0
 12  1  1  0  0  0
  1  7  2  0  0  0
  1  2  1  0  0  0
  2  3  2  0  0  0
  3  4  1  0  0  0
  4  5  1  0  0  0
  4  6  2  0  0  0
  6  9  1  0  0  0
  6  7  1  0  0  0
  9 10  1  0  0  0
  9 11  2  0  0  0
  7  8  1  0  0  0
M  CHG 1   9   1
M  CHG 1  10  -1
M  END
> <minimizedAffinity>
-6.07592

$$$$
ZINC000067897831


 26 28  0  0  0  0  0  0  0  0999 V2000
   -8.3725   16.6415   -6.9608 C   0  0  0  0  0  0  0  0  0  0  0  0
   -9.7713   16.5785   -7.6028 C   0  0  0  0  0  0  0  0  0  0  0  0
  -10.2588   16.4233   -6.2547 O   0  0  0  0  0  0  0  0  0  0  0  0
   -9.1057   17.0649   -5.6740 C   0  0  0  0  0  0  0  0  0  0  0  0
   -7.5063   17.6872   -7.5214 N   0  0  0  0  0  0  0  0  0  0  0  0
  -11.2887   13.5944   -2.7481 H   0  0  0  0  0  0  0  0  0  0  0  0
  -11.2887   13.5944   -2.7481 H   0  0  0  0  0  0  0  0  0  0  0  0
   -8.3360   18.7685   -8.0696 C   0  0  0  0  0  0  0  0  0  0  0  0
   -8.0617   18.9137   -9.5443 C   0  0  0  0  0  0  0  0  0  0  0  0
   -7.2715   17.9813  -10.1928 C   0  0  0  0  0  0  0  0  0  0  0  0
   -7.0158   18.1084  -11.5424 C   0  0  0  0  0  0  0  0  0  0  0  0
   -7.5572   19.1808  -12.2542 C   0  0  0  0  0  0  0  0  0  0  0  0
   -8.3542   20.1178  -11.5935 C   0  0  0  0  0  0  0  0  0  0  0  0
   -8.6059   19.9756  -10.2446 C   0  0  0  0  0  0  0  0  0  0  0  0
   -7.2965   19.3188  -13.6555 C   0  0  0  0  0  0  0  0  0  0  0  0
   -7.0896   19.4283  -14.7672 N   0  0  0  0  0  0  0  0  0  0  0  0
   -7.6783   15.2819   -6.8576 C   0  0  0  0  0  0  0  0  0  0  0  0
   -6.8639   14.2307  -10.2602 C   0  0  0  0  0  0  0  0  0  0  0  0
   -7.8179   14.4088   -9.3153 C   0  0  0  0  0  0  0  0  0  0  0  0
   -7.1058   14.9070   -8.2002 C   0  0  0  0  0  0  0  0  0  0  0  0
   -5.8575   14.9768   -8.5627 N   0  0  0  0  0  0  0  0  0  0  0  0
   -5.7029   14.6005   -9.7014 O   0  0  0  0  0  0  0  0  0  0  0  0
   -7.4068   12.2220  -11.6089 C   0  0  0  0  0  0  0  0  0  0  0  0
   -7.0666   13.7129  -11.6608 C   0  0  0  0  0  0  0  0  0  0  0  0
   -5.7840   13.9153  -12.4699 C   0  0  0  0  0  0  0  0  0  0  0  0
   -8.2146   14.4753  -12.3253 C   0  0  0  0  0  0  0  0  0  0  0  0
 23 24  1  0  0  0
 24 25  1  0  0  0
 24 26  1  0  0  0
 24 18  1  0  0  0
 18 22  1  0  0  0
 18 19  2  0  0  0
 19 20  1  0  0  0
 20 17  1  0  0  0
 20 21  2  0  0  0
 17  1  1  0  0  0
  1  4  1  0  0  0
  1  5  1  0  0  0
  1  2  1  0  0  0
  5  8  1  0  0  0
  8  9  1  0  0  0
  9 14  1  0  0  0
  9 10  2  0  0  0
 10 11  1  0  0  0
 11 12  2  0  0  0
 12 15  1  0  0  0
 12 13  1  0  0  0
 15 16  3  0  0  0
 13 14  2  0  0  0
  2  3  1  0  0  0
  3  4  1  0  0  0
 21 22  1  0  0  0
  5  6  1  0  0  0
  5  7  1  0  0  0
M  CHG 1   5   1
M  END
> <minimizedAffinity>
-7.23048

$$$$
ZINC000005258308


 22 25  0  0  0  0  0  0  0  0999 V2000
   -8.0667   17.9106   -7.7629 C   0  0  0  0  0  0  0  0  0  0  0  0
   -8.0564   18.5252   -8.9592 C   0  0  0  0  0  0  0  0  0  0  0  0
   -8.7231   19.8403   -9.2878 C   0  0  0  0  0  0  0  0  0  0  0  0
   -8.4118   20.0909  -10.7709 C   0  0  0  0  0  0  0  0  0  0  0  0
   -7.5845   18.9163  -11.2293 C   0  0  0  0  0  0  0  0  0  0  0  0
   -7.0266   18.6132  -12.4625 C   0  0  0  0  0  0  0  0  0  0  0  0
   -6.3349   17.4997  -12.5948 N   0  0  0  0  0  0  0  0  0  0  0  0
   -6.1570   16.6563  -11.5749 C   0  0  0  0  0  0  0  0  0  0  0  0
   -5.2757   15.1274  -11.5308 S   0  0  0  0  0  0  0  0  0  0  0  0
   -5.6794   14.9210   -9.8330 C   0  0  0  0  0  0  0  0  0  0  0  0
   -6.3845   15.9147   -9.4329 N   0  0  0  0  0  0  0  0  0  0  0  0
   -6.6690   16.8975  -10.3740 N   0  0  0  0  0  0  0  0  0  0  0  0
   -7.3898   18.0385  -10.1742 C   0  0  0  0  0  0  0  0  0  0  0  0
  -10.5973   18.1115   -5.0004 C   0  0  0  0  0  0  0  0  0  0  0  0
  -10.4704   19.4347   -4.6162 C   0  0  0  0  0  0  0  0  0  0  0  0
   -9.5631   20.2637   -5.2530 C   0  0  0  0  0  0  0  0  0  0  0  0
   -8.7787   19.7756   -6.2766 C   0  0  0  0  0  0  0  0  0  0  0  0
   -8.9010   18.4398   -6.6702 C   0  0  0  0  0  0  0  0  0  0  0  0
   -9.8154   17.6074   -6.0187 C   0  0  0  0  0  0  0  0  0  0  0  0
  -11.3071   16.0579   -4.1309 O   0  0  0  0  0  0  0  0  0  0  0  0
  -11.5702   17.2332   -4.3126 N   0  0  0  0  0  0  0  0  0  0  0  0
  -12.6316   17.6868   -3.9240 O   0  0  0  0  0  0  0  0  0  0  0  0
 20 21  1  0  0  0
 21 22  2  0  0  0
 21 14  1  0  0  0
 14 19  2  0  0  0
 14 15  1  0  0  0
 15 16  2  0  0  0
 16 17  1  0  0  0
 17 18  2  0  0  0
 18  1  1  0  0  0
 18 19  1  0  0  0
  1  2  2  0  0  0
  2 13  1  0  0  0
  2  3  1  0  0  0
  3  4  1  0  0  0
  4  5  1  0  0  0
  5 13  2  0  0  0
  5  6  1  0  0  0
  6  7  2  0  0  0
  7  8  1  0  0  0
  8 12  2  0  0  0
  8  9  1  0  0  0
  9 10  1  0  0  0
 10 11  2  0  0  0
 11 12  1  0  0  0
 12 13  1  0  0  0
M  CHG 1  12   1
M  CHG 1  20  -1
M  CHG 1  21   1
M  END
> <minimizedAffinity>
-8.81083

$$$$
ZINC000199375932


 34 37  0  0  0  0  0  0  0  0999 V2000
   -8.0059   18.8296   -8.5824 C   0  0  0  0  0  0  0  0  0  0  0  0
   -7.0357   17.8020   -8.3194 O   0  0  0  0  0  0  0  0  0  0  0  0
   -7.6067   16.9287   -7.3214 C   0  0  0  0  0  0  0  0  0  0  0  0
   -9.0918   16.8128   -7.7493 C   0  0  0  0  0  0  0  0  0  0  0  0
   -9.9204   16.4857   -6.6319 O   0  0  0  0  0  0  0  0  0  0  0  0
   -9.3952   18.2453   -8.2616 C   0  0  0  0  0  0  0  0  0  0  0  0
  -10.0455   19.0123   -7.2463 O   0  0  0  0  0  0  0  0  0  0  0  0
   -8.4351   21.4509  -12.7006 H   0  0  0  0  0  0  0  0  0  0  0  0
   -8.4351   21.4509  -12.7006 H   0  0  0  0  0  0  0  0  0  0  0  0
   -7.1352   19.5168  -14.5515 N   0  0  0  0  0  0  0  0  0  0  0  0
   -6.9585   18.8222  -13.3676 C   0  0  0  0  0  0  0  0  0  0  0  0
   -7.5153   19.2944  -12.1671 C   0  0  0  0  0  0  0  0  0  0  0  0
   -8.2625   20.3704  -11.8218 N   0  0  0  0  0  0  0  0  0  0  0  0
   -8.5154   20.3306  -10.5459 C   0  0  0  0  0  0  0  0  0  0  0  0
   -7.9445   19.2235   -9.9921 N   0  0  0  0  0  0  0  0  0  0  0  0
   -7.3023   18.5456  -10.9972 C   0  0  0  0  0  0  0  0  0  0  0  0
   -6.5884   17.4269  -11.0675 N   0  0  0  0  0  0  0  0  0  0  0  0
   -6.0860   17.0227  -12.2152 C   0  0  0  0  0  0  0  0  0  0  0  0
   -6.2629   17.6900  -13.3408 N   0  0  0  0  0  0  0  0  0  0  0  0
   -6.9619   18.8246  -13.3705 H   0  0  0  0  0  0  0  0  0  0  0  0
   -6.9619   18.8246  -13.3705 H   0  0  0  0  0  0  0  0  0  0  0  0
   -6.9356   15.5796   -7.3502 C   0  0  0  0  0  0  0  0  0  0  0  0
   -7.3172   14.6966   -6.6116 O   0  0  0  0  0  0  0  0  0  0  0  0
   -5.9114   15.3545   -8.1968 N   0  0  0  0  0  0  0  0  0  0  0  0
  -11.1423   19.8744   -1.9458 H   0  0  0  0  0  0  0  0  0  0  0  0
   -5.2590   14.0431   -8.2249 C   0  0  0  0  0  0  0  0  0  0  0  0
   -5.4276   13.4191   -9.6116 C   0  0  0  0  0  0  0  0  0  0  0  0
   -6.6776   12.5369   -9.6254 C   0  0  0  0  0  0  0  0  0  0  0  0
   -7.5218   12.9041  -10.7651 N   0  0  0  0  0  0  0  0  0  0  0  0
   -8.2306   14.1829  -10.8927 C   0  0  0  0  0  0  0  0  0  0  0  0
   -8.6072   14.2981  -12.3863 C   0  0  0  0  0  0  0  0  0  0  0  0
   -8.6550   12.8132  -12.8150 C   0  0  0  0  0  0  0  0  0  0  0  0
   -7.7423   12.1152  -11.8309 C   0  0  0  0  0  0  0  0  0  0  0  0
   -7.2824   11.0027  -11.9786 O   0  0  0  0  0  0  0  0  0  0  0  0
 10 11  1  0  0  0
 11 19  2  0  0  0
 11 12  1  0  0  0
 12 16  2  0  0  0
 12 13  1  0  0  0
 13 14  2  0  0  0
 14 15  1  0  0  0
 15  1  1  0  0  0
 15 16  1  0  0  0
  1  6  1  0  0  0
  1  2  1  0  0  0
  2  3  1  0  0  0
  3 22  1  0  0  0
  3  4  1  0  0  0
 22 23  2  0  0  0
 22 24  1  0  0  0
 24 26  1  0  0  0
 26 27  1  0  0  0
 27 28  1  0  0  0
 28 29  1  0  0  0
 29 33  1  0  0  0
 29 30  1  0  0  0
 30 31  1  0  0  0
 31 32  1  0  0  0
 32 33  1  0  0  0
 33 34  2  0  0  0
  4  5  1  0  0  0
  4  6  1  0  0  0
  6  7  1  0  0  0
 16 17  1  0  0  0
 17 18  2  0  0  0
 18 19  1  0  0  0
 10 20  1  0  0  0
 10 21  1  0  0  0
 24 25  1  0  0  0
  5  8  1  0  0  0
  7  9  1  0  0  0
M  END
> <minimizedAffinity>
-8.44132

$$$$
ZINC000012113983


 25 28  0  0  0  0  0  0  0  0999 V2000
   -7.5192   17.9742   -9.9387 N   0  0  0  0  0  0  0  0  0  0  0  0
   -8.2649   17.3014   -8.8673 C   0  0  0  0  0  0  0  0  0  0  0  0
   -8.4552   18.2650   -7.6937 C   0  0  0  0  0  0  0  0  0  0  0  0
   -9.2194   19.5018   -8.1740 C   0  0  0  0  0  0  0  0  0  0  0  0
   -8.4458   20.1563   -9.3219 C   0  0  0  0  0  0  0  0  0  0  0  0
   -8.2558   19.1379  -10.4483 C   0  0  0  0  0  0  0  0  0  0  0  0
   -9.3577   20.4813   -7.0370 C   0  0  0  0  0  0  0  0  0  0  0  0
   -9.5424   20.0194   -5.7476 C   0  0  0  0  0  0  0  0  0  0  0  0
   -9.6698   20.9140   -4.7010 C   0  0  0  0  0  0  0  0  0  0  0  0
   -9.6129   22.2766   -4.9430 C   0  0  0  0  0  0  0  0  0  0  0  0
   -9.7095   23.3498   -4.1050 O   0  0  0  0  0  0  0  0  0  0  0  0
   -9.1731   24.4635   -4.8432 C   0  0  0  0  0  0  0  0  0  0  0  0
   -9.4066   24.1069   -6.2185 O   0  0  0  0  0  0  0  0  0  0  0  0
   -9.4267   22.7422   -6.2427 C   0  0  0  0  0  0  0  0  0  0  0  0
   -9.2937   21.8402   -7.2853 C   0  0  0  0  0  0  0  0  0  0  0  0
   -7.1976   17.0381  -11.0241 C   0  0  0  0  0  0  0  0  0  0  0  0
   -5.6590   11.0828  -10.6162 C   0  0  0  0  0  0  0  0  0  0  0  0
   -6.2151   12.3844  -11.1970 C   0  0  0  0  0  0  0  0  0  0  0  0
   -7.5649   12.1104  -11.8642 C   0  0  0  0  0  0  0  0  0  0  0  0
   -8.1067   13.4053  -12.4740 C   0  0  0  0  0  0  0  0  0  0  0  0
   -8.3173   14.4392  -11.3633 C   0  0  0  0  0  0  0  0  0  0  0  0
   -7.0584   14.6012  -10.6231 N   0  0  0  0  0  0  0  0  0  0  0  0
   -6.5143   15.8224  -10.4529 C   0  0  0  0  0  0  0  0  0  0  0  0
   -5.4748   15.9429   -9.8400 O   0  0  0  0  0  0  0  0  0  0  0  0
   -6.4036   13.4069  -10.0719 C   0  0  0  0  0  0  0  0  0  0  0  0
 17 18  1  0  0  0
 18 25  1  0  0  0
 18 19  1  0  0  0
 19 20  1  0  0  0
 20 21  1  0  0  0
 21 22  1  0  0  0
 22 23  1  0  0  0
 22 25  1  0  0  0
 23 24  2  0  0  0
 23 16  1  0  0  0
 16  1  1  0  0  0
  1  6  1  0  0  0
  1  2  1  0  0  0
  2  3  1  0  0  0
  3  4  1  0  0  0
  4  7  1  0  0  0
  4  5  1  0  0  0
  7 15  1  0  0  0
  7  8  2  0  0  0
  8  9  1  0  0  0
  9 10  2  0  0  0
 10 14  1  0  0  0
 10 11  1  0  0  0
 11 12  1  0  0  0
 12 13  1  0  0  0
 13 14  1  0  0  0
 14 15  2  0  0  0
  5  6  1  0  0  0
M  END
> <minimizedAffinity>
-8.01981

$$$$
ZINC000095941508


 24 24  0  0  0  0  0  0  0  0999 V2000
   -7.8111   15.3962  -10.1431 C   0  0  0  0  0  0  0  0  0  0  0  0
   -6.9910   14.1814  -10.5820 C   0  0  0  0  0  0  0  0  0  0  0  0
   -9.7521   16.9589   -6.0319 N   0  0  0  0  0  0  0  0  0  0  0  0
   -9.3500   15.9285   -6.8021 C   0  0  0  0  0  0  0  0  0  0  0  0
   -9.4714   14.7872   -6.4020 O   0  0  0  0  0  0  0  0  0  0  0  0
   -8.8134   16.1636   -8.0158 N   0  0  0  0  0  0  0  0  0  0  0  0
   -8.4113   15.1332   -8.7859 C   0  0  0  0  0  0  0  0  0  0  0  0
   -8.5324   13.9948   -8.3870 O   0  0  0  0  0  0  0  0  0  0  0  0
  -10.3873   16.7428   -4.7209 H   0  0  0  0  0  0  0  0  0  0  0  0
  -10.3873   16.7428   -4.7209 H   0  0  0  0  0  0  0  0  0  0  0  0
   -9.3171   17.0581   -3.6273 C   0  0  0  0  0  0  0  0  0  0  0  0
  -10.3355   16.7032   -4.7126 C   0  0  0  0  0  0  0  0  0  0  0  0
  -11.5900   17.5608   -4.5349 C   0  0  0  0  0  0  0  0  0  0  0  0
   -6.9391   16.5762  -10.0726 N   0  0  0  0  0  0  0  0  0  0  0  0
   -9.0377   10.9162   -6.1089 H   0  0  0  0  0  0  0  0  0  0  0  0
   -9.0377   10.9162   -6.1089 H   0  0  0  0  0  0  0  0  0  0  0  0
   -7.1197   17.3915  -11.2811 C   0  0  0  0  0  0  0  0  0  0  0  0
   -5.7763   17.5482  -11.9962 C   0  0  0  0  0  0  0  0  0  0  0  0
   -7.6455   18.7504  -10.8964 C   0  0  0  0  0  0  0  0  0  0  0  0
   -7.8600   19.1935   -9.6359 C   0  0  0  0  0  0  0  0  0  0  0  0
   -8.3315   20.4552   -9.7181 N   0  0  0  0  0  0  0  0  0  0  0  0
   -8.4094   20.7989  -11.0739 N   0  0  0  0  0  0  0  0  0  0  0  0
   -7.9923   19.7786  -11.7788 C   0  0  0  0  0  0  0  0  0  0  0  0
   -0.0451   20.3913  -14.9295 H   0  0  0  0  0  0  0  0  0  0  0  0
 11 12  1  0  0  0
 12 13  1  0  0  0
 12  3  1  0  0  0
  3  4  1  0  0  0
  4  5  2  0  0  0
  4  6  1  0  0  0
  6  7  1  0  0  0
  7  8  2  0  0  0
  7  1  1  0  0  0
  1  2  1  0  0  0
  1 14  1  0  0  0
 14 17  1  0  0  0
 17 18  1  0  0  0
 17 19  1  0  0  0
 19 23  1  0  0  0
 19 20  2  0  0  0
 20 21  1  0  0  0
 21 22  1  0  0  0
 22 23  2  0  0  0
  3  9  1  0  0  0
  6 10  1  0  0  0
 14 15  1  0  0  0
 14 16  1  0  0  0
 21 24  1  0  0  0
M  CHG 1  14   1
M  END
> <minimizedAffinity>
-6.38372

$$$$
ZINC000000730498


 26 29  0  0  0  0  0  0  0  0999 V2000
   -5.6230   11.9495   -8.9630 O   0  0  0  0  0  0  0  0  0  0  0  0
   -6.2047   12.9909   -9.1993 C   0  0  0  0  0  0  0  0  0  0  0  0
   -6.0936   14.0432   -8.3608 N   0  0  0  0  0  0  0  0  0  0  0  0
   -6.7978   15.2983   -8.6253 C   0  0  0  0  0  0  0  0  0  0  0  0
   -8.1804   15.2592   -7.9694 C   0  0  0  0  0  0  0  0  0  0  0  0
   -8.8790   16.6041   -8.1815 C   0  0  0  0  0  0  0  0  0  0  0  0
   -8.0780   17.6768   -7.5801 N   0  0  0  0  0  0  0  0  0  0  0  0
   -6.7776   17.7666   -8.2550 C   0  0  0  0  0  0  0  0  0  0  0  0
   -5.9982   16.4669   -8.0424 C   0  0  0  0  0  0  0  0  0  0  0  0
   -6.9538   15.4945  -10.0733 N   0  0  0  0  0  0  0  0  0  0  0  0
   -7.3933   14.4163  -10.8346 C   0  0  0  0  0  0  0  0  0  0  0  0
   -8.1565   14.5834  -11.9759 C   0  0  0  0  0  0  0  0  0  0  0  0
   -8.5811   13.4729  -12.6816 C   0  0  0  0  0  0  0  0  0  0  0  0
   -8.2486   12.1971  -12.2549 C   0  0  0  0  0  0  0  0  0  0  0  0
   -7.4811   12.0137  -11.1226 C   0  0  0  0  0  0  0  0  0  0  0  0
   -7.0372   13.1250  -10.4092 C   0  0  0  0  0  0  0  0  0  0  0  0
   -5.6258   11.9532   -8.9611 H   0  0  0  0  0  0  0  0  0  0  0  0
   -5.6258   11.9532   -8.9611 H   0  0  0  0  0  0  0  0  0  0  0  0
   -5.6258   11.9532   -8.9611 H   0  0  0  0  0  0  0  0  0  0  0  0
   -8.7887   18.9546   -7.7215 C   0  0  0  0  0  0  0  0  0  0  0  0
   -9.0191   19.5548   -6.3585 C   0  0  0  0  0  0  0  0  0  0  0  0
   -8.7115   18.8293   -5.2228 C   0  0  0  0  0  0  0  0  0  0  0  0
   -8.9229   19.3798   -3.9725 C   0  0  0  0  0  0  0  0  0  0  0  0
   -9.4414   20.6560   -3.8581 C   0  0  0  0  0  0  0  0  0  0  0  0
   -9.7482   21.3820   -4.9938 C   0  0  0  0  0  0  0  0  0  0  0  0
   -9.5328   20.8331   -6.2440 C   0  0  0  0  0  0  0  0  0  0  0  0
  1  2  2  0  0  0
  2 16  1  0  0  0
  2  3  1  0  0  0
  4  3  1  0  0  0
  4  9  1  0  0  0
  4  5  1  0  0  0
  4 10  1  0  0  0
  5  6  1  0  0  0
  6  7  1  0  0  0
  7 20  1  0  0  0
  7  8  1  0  0  0
 20 21  1  0  0  0
 21 26  1  0  0  0
 21 22  2  0  0  0
 22 23  1  0  0  0
 23 24  2  0  0  0
 24 25  1  0  0  0
 25 26  2  0  0  0
  8  9  1  0  0  0
 10 11  1  0  0  0
 11 16  2  0  0  0
 11 12  1  0  0  0
 12 13  2  0  0  0
 13 14  1  0  0  0
 14 15  2  0  0  0
 15 16  1  0  0  0
  3 17  1  0  0  0
  7 18  1  0  0  0
 10 19  1  0  0  0
M  CHG 1   7   1
M  END
> <minimizedAffinity>
-8.26856

$$$$
ZINC000101945270


 29 32  0  0  0  0  0  0  0  0999 V2000
   -7.5346   15.3007   -8.3442 N   0  0  0  0  0  0  0  0  0  0  0  0
   -6.7968   16.0451   -7.3123 C   0  0  0  0  0  0  0  0  0  0  0  0
   -7.5603   17.3377   -7.0050 C   0  0  0  0  0  0  0  0  0  0  0  0
   -8.9506   17.0112   -6.6609 N   0  0  0  0  0  0  0  0  0  0  0  0
   -9.6470   16.3855   -7.7930 C   0  0  0  0  0  0  0  0  0  0  0  0
   -8.9702   15.0592   -8.1353 C   0  0  0  0  0  0  0  0  0  0  0  0
   -6.7704   14.7548   -9.7082 S   0  0  0  0  0  0  0  0  0  0  0  0
   -7.6305   13.7838  -10.2886 O   0  0  0  0  0  0  0  0  0  0  0  0
   -5.4280   14.4788   -9.3329 O   0  0  0  0  0  0  0  0  0  0  0  0
   -6.1924   15.9086  -12.1281 C   0  0  0  0  0  0  0  0  0  0  0  0
   -6.1427   16.9810  -13.0206 C   0  0  0  0  0  0  0  0  0  0  0  0
   -6.5924   18.2242  -12.6259 C   0  0  0  0  0  0  0  0  0  0  0  0
   -7.0912   18.4095  -11.3489 C   0  0  0  0  0  0  0  0  0  0  0  0
   -7.1434   17.3509  -10.4592 C   0  0  0  0  0  0  0  0  0  0  0  0
   -6.7031   16.1014  -10.8426 C   0  0  0  0  0  0  0  0  0  0  0  0
   -5.3585   13.5897  -12.8505 N   0  0  0  0  0  0  0  0  0  0  0  0
   -5.7275   14.6155  -12.5309 C   0  0  0  0  0  0  0  0  0  0  0  0
   -9.6711   18.2030   -6.1935 C   0  0  0  0  0  0  0  0  0  0  0  0
  -10.0244   18.0376   -4.7813 N   0  0  0  0  0  0  0  0  0  0  0  0
   -9.2084   18.4095   -3.7610 C   0  0  0  0  0  0  0  0  0  0  0  0
   -8.2122   19.0958   -3.8390 O   0  0  0  0  0  0  0  0  0  0  0  0
   -9.7866   17.8015   -2.5193 C   0  0  0  0  0  0  0  0  0  0  0  0
   -9.6709   18.5732   -1.2217 C   0  0  0  0  0  0  0  0  0  0  0  0
  -10.6194   17.9227   -0.2367 C   0  0  0  0  0  0  0  0  0  0  0  0
  -11.5984   17.1376   -0.5711 C   0  0  0  0  0  0  0  0  0  0  0  0
  -11.9548   16.7756   -1.9977 C   0  0  0  0  0  0  0  0  0  0  0  0
  -11.2997   17.7900   -2.8993 C   0  0  0  0  0  0  0  0  0  0  0  0
  -11.2019   17.5028   -4.3659 C   0  0  0  0  0  0  0  0  0  0  0  0
  -12.0160   16.9193   -5.0488 O   0  0  0  0  0  0  0  0  0  0  0  0
 16 17  3  0  0  0
 17 10  1  0  0  0
 10 15  2  0  0  0
 10 11  1  0  0  0
 11 12  2  0  0  0
 12 13  1  0  0  0
 13 14  2  0  0  0
 14 15  1  0  0  0
 15  7  1  0  0  0
  7  8  2  0  0  0
  7  9  2  0  0  0
  7  1  1  0  0  0
  1  6  1  0  0  0
  1  2  1  0  0  0
  2  3  1  0  0  0
  3  4  1  0  0  0
  4 18  1  0  0  0
  4  5  1  0  0  0
 18 19  1  0  0  0
 19 28  1  0  0  0
 19 20  1  0  0  0
 20 21  2  0  0  0
 20 22  1  0  0  0
 22 27  1  0  0  0
 22 23  1  0  0  0
 23 24  1  0  0  0
 24 25  2  0  0  0
 25 26  1  0  0  0
 26 27  1  0  0  0
 27 28  1  0  0  0
 28 29  2  0  0  0
  5  6  1  0  0  0
M  END
> <minimizedAffinity>
-8.14457

$$$$
ZINC000000538083


 32 33  0  0  0  0  0  0  0  0999 V2000
   -9.5689   18.0041   -6.2955 N   0  0  0  0  0  0  0  0  0  0  0  0
  -10.3830   11.2429   -7.9222 H   0  0  0  0  0  0  0  0  0  0  0  0
   -8.6917   16.8815   -6.6538 C   0  0  0  0  0  0  0  0  0  0  0  0
   -9.3757   16.0190   -7.7165 C   0  0  0  0  0  0  0  0  0  0  0  0
   -8.6076   14.7873   -7.9142 N   0  0  0  0  0  0  0  0  0  0  0  0
   -5.5793   15.1381  -10.4400 H   0  0  0  0  0  0  0  0  0  0  0  0
   -6.2605   13.6993  -12.8466 C   0  0  0  0  0  0  0  0  0  0  0  0
   -6.8925   13.9844  -11.5559 N   0  0  0  0  0  0  0  0  0  0  0  0
   -8.2364   14.0236  -11.4644 C   0  0  0  0  0  0  0  0  0  0  0  0
   -8.9244   13.8225  -12.4506 O   0  0  0  0  0  0  0  0  0  0  0  0
   -8.8393   14.2969  -10.2266 C   0  0  0  0  0  0  0  0  0  0  0  0
   -8.0454   14.5184   -9.1359 C   0  0  0  0  0  0  0  0  0  0  0  0
   -6.6795   14.4688   -9.2744 N   0  0  0  0  0  0  0  0  0  0  0  0
   -5.8204   14.7048   -8.1114 C   0  0  0  0  0  0  0  0  0  0  0  0
   -6.1263   14.1993  -10.4712 C   0  0  0  0  0  0  0  0  0  0  0  0
   -4.9156   14.1594  -10.5757 O   0  0  0  0  0  0  0  0  0  0  0  0
   -9.6932   18.0812   -4.8337 C   0  0  0  0  0  0  0  0  0  0  0  0
  -11.1661   17.9540   -4.4398 C   0  0  0  0  0  0  0  0  0  0  0  0
  -11.5568   16.5805   -4.4936 O   0  0  0  0  0  0  0  0  0  0  0  0
   -4.3531   12.9177   -6.0986 H   0  0  0  0  0  0  0  0  0  0  0  0
   -8.9942   19.2565   -6.8047 C   0  0  0  0  0  0  0  0  0  0  0  0
   -9.5164   19.5193   -8.2187 C   0  0  0  0  0  0  0  0  0  0  0  0
   -8.5240   20.4076   -8.9718 C   0  0  0  0  0  0  0  0  0  0  0  0
   -7.9088   19.6257  -10.1037 C   0  0  0  0  0  0  0  0  0  0  0  0
   -7.0834   18.5506   -9.8326 C   0  0  0  0  0  0  0  0  0  0  0  0
   -6.5190   17.8334  -10.8709 C   0  0  0  0  0  0  0  0  0  0  0  0
   -6.7803   18.1911  -12.1803 C   0  0  0  0  0  0  0  0  0  0  0  0
   -7.6068   19.2656  -12.4515 C   0  0  0  0  0  0  0  0  0  0  0  0
   -8.1743   19.9804  -11.4132 C   0  0  0  0  0  0  0  0  0  0  0  0
   -6.1756   17.4236  -13.2920 N   0  0  0  0  0  0  0  0  0  0  0  0
   -5.1114   16.8534  -13.1303 O   0  0  0  0  0  0  0  0  0  0  0  0
   -6.7421   17.3621  -14.3685 O   0  0  0  0  0  0  0  0  0  0  0  0
  7  8  1  0  0  0
  8 15  1  0  0  0
  8  9  1  0  0  0
  9 10  2  0  0  0
  9 11  1  0  0  0
 11 12  2  0  0  0
 12  5  1  0  0  0
 12 13  1  0  0  0
  5  4  1  0  0  0
  4  3  1  0  0  0
  3  1  1  0  0  0
  1 17  1  0  0  0
  1 21  1  0  0  0
 17 18  1  0  0  0
 18 19  1  0  0  0
 21 22  1  0  0  0
 22 23  1  0  0  0
 23 24  1  0  0  0
 24 29  1  0  0  0
 24 25  2  0  0  0
 25 26  1  0  0  0
 26 27  2  0  0  0
 27 30  1  0  0  0
 27 28  1  0  0  0
 30 31  1  0  0  0
 30 32  2  0  0  0
 28 29  2  0  0  0
 13 14  1  0  0  0
 13 15  1  0  0  0
 15 16  2  0  0  0
  5  6  1  0  0  0
  1  2  1  0  0  0
 19 20  1  0  0  0
M  CHG 1   1   1
M  CHG 1  30   1
M  CHG 1  31  -1
M  END
> <minimizedAffinity>
-7.18544

$$$$
ZINC000071760083


 23 25  0  0  0  0  0  0  0  0999 V2000
   -8.6093   17.7492   -6.6219 C   0  0  0  0  0  0  0  0  0  0  0  0
   -7.6136   18.1976   -7.6941 C   0  0  0  0  0  0  0  0  0  0  0  0
   -6.8029   16.9880   -8.1702 C   0  0  0  0  0  0  0  0  0  0  0  0
   -7.7328   15.9394   -8.6111 N   0  0  0  0  0  0  0  0  0  0  0  0
   -8.7881   15.4978   -7.6890 C   0  0  0  0  0  0  0  0  0  0  0  0
   -9.5764   16.7242   -7.2186 C   0  0  0  0  0  0  0  0  0  0  0  0
  -10.5254   16.3292   -6.2259 O   0  0  0  0  0  0  0  0  0  0  0  0
  -10.3549   20.7185   -4.1697 H   0  0  0  0  0  0  0  0  0  0  0  0
  -10.4215   22.7125   -4.6257 C   0  0  0  0  0  0  0  0  0  0  0  0
   -9.6654   21.5492   -5.1084 N   0  0  0  0  0  0  0  0  0  0  0  0
   -9.9979   21.2487   -6.5079 C   0  0  0  0  0  0  0  0  0  0  0  0
   -9.1335   20.0837   -6.9960 C   0  0  0  0  0  0  0  0  0  0  0  0
   -9.3655   18.9124   -6.1392 N   0  0  0  0  0  0  0  0  0  0  0  0
   -9.0329   19.2131   -4.7397 C   0  0  0  0  0  0  0  0  0  0  0  0
   -9.8973   20.3780   -4.2517 C   0  0  0  0  0  0  0  0  0  0  0  0
   -7.6162   15.3753   -9.8765 C   0  0  0  0  0  0  0  0  0  0  0  0
   -7.6873   13.9951  -10.0229 C   0  0  0  0  0  0  0  0  0  0  0  0
   -7.5683   13.4444  -11.3008 C   0  0  0  0  0  0  0  0  0  0  0  0
   -7.3816   14.3149  -12.3825 C   0  0  0  0  0  0  0  0  0  0  0  0
   -7.3224   15.6728  -12.1498 C   0  0  0  0  0  0  0  0  0  0  0  0
   -7.4441   16.1592  -10.9294 N   0  0  0  0  0  0  0  0  0  0  0  0
   -7.6358   12.0279  -11.5002 C   0  0  0  0  0  0  0  0  0  0  0  0
   -7.6895   10.9043  -11.6583 N   0  0  0  0  0  0  0  0  0  0  0  0
  9 10  1  0  0  0
 10 15  1  0  0  0
 10 11  1  0  0  0
 11 12  1  0  0  0
 12 13  1  0  0  0
 13  1  1  0  0  0
 13 14  1  0  0  0
  1  6  1  0  0  0
  1  2  1  0  0  0
  2  3  1  0  0  0
  3  4  1  0  0  0
  4 16  1  0  0  0
  4  5  1  0  0  0
 16 21  1  0  0  0
 16 17  2  0  0  0
 17 18  1  0  0  0
 18 22  1  0  0  0
 18 19  2  0  0  0
 22 23  3  0  0  0
 19 20  1  0  0  0
 20 21  2  0  0  0
  5  6  1  0  0  0
  6  7  1  0  0  0
 14 15  1  0  0  0
  7  8  1  0  0  0
M  END
> <minimizedAffinity>
-7.32764

$$$$
ZINC000006940406


 25 26  0  0  0  0  0  0  0  0999 V2000
   -8.6916   13.7594  -11.3975 C   0  0  0  0  0  0  0  0  0  0  0  0
   -7.4788   13.8930  -10.8662 C   0  0  0  0  0  0  0  0  0  0  0  0
   -7.3060   13.8583   -9.5158 N   0  0  0  0  0  0  0  0  0  0  0  0
   -6.1988   14.2860   -8.9588 C   0  0  0  0  0  0  0  0  0  0  0  0
   -5.1555   14.7720   -9.7062 N   0  0  0  0  0  0  0  0  0  0  0  0
   -5.3908   15.1707  -11.1020 C   0  0  0  0  0  0  0  0  0  0  0  0
   -6.2659   14.0800  -11.7520 C   0  0  0  0  0  0  0  0  0  0  0  0
   -7.4831   13.8904  -10.8660 H   0  0  0  0  0  0  0  0  0  0  0  0
   -7.4831   13.8904  -10.8660 H   0  0  0  0  0  0  0  0  0  0  0  0
   -6.1033   16.4980  -11.1419 C   0  0  0  0  0  0  0  0  0  0  0  0
   -6.4424   17.0642  -12.3565 C   0  0  0  0  0  0  0  0  0  0  0  0
   -7.0960   18.2817  -12.3931 C   0  0  0  0  0  0  0  0  0  0  0  0
   -7.4109   18.9328  -11.2152 C   0  0  0  0  0  0  0  0  0  0  0  0
   -7.0731   18.3660  -10.0005 C   0  0  0  0  0  0  0  0  0  0  0  0
   -6.4230   17.1466   -9.9638 C   0  0  0  0  0  0  0  0  0  0  0  0
   -8.1104   20.2368  -11.2544 N   0  0  0  0  0  0  0  0  0  0  0  0
   -8.2270   20.8338  -12.3096 O   0  0  0  0  0  0  0  0  0  0  0  0
   -8.5693   20.7128  -10.2314 O   0  0  0  0  0  0  0  0  0  0  0  0
   -6.0462   14.2350   -7.2042 S   0  0  0  0  0  0  0  0  0  0  0  0
   -7.3711   15.3773   -6.7401 C   0  0  0  0  0  0  0  0  0  0  0  0
   -5.4901   12.7918  -11.8504 C   0  0  0  0  0  0  0  0  0  0  0  0
   -4.3380   12.8067  -12.2140 O   0  0  0  0  0  0  0  0  0  0  0  0
   -6.0790   11.6279  -11.5338 O   0  0  0  0  0  0  0  0  0  0  0  0
   -5.3632   10.7533  -10.6225 C   0  0  0  0  0  0  0  0  0  0  0  0
   -4.7126    9.6159  -11.4123 C   0  0  0  0  0  0  0  0  0  0  0  0
  1  2  2  0  0  0
  2  7  1  0  0  0
  2  3  1  0  0  0
  3  4  2  0  0  0
  4 19  1  0  0  0
  4  5  1  0  0  0
 19 20  1  0  0  0
  5  6  1  0  0  0
  6 10  1  0  0  0
  6  7  1  0  0  0
 10 15  1  0  0  0
 10 11  2  0  0  0
 11 12  1  0  0  0
 12 13  2  0  0  0
 13 16  1  0  0  0
 13 14  1  0  0  0
 16 17  1  0  0  0
 16 18  2  0  0  0
 14 15  2  0  0  0
  7 21  1  0  0  0
 21 22  2  0  0  0
 21 23  1  0  0  0
 23 24  1  0  0  0
 24 25  1  0  0  0
  3  8  1  0  0  0
  5  9  1  0  0  0
M  CHG 1   3   1
M  CHG 1  16   1
M  CHG 1  17  -1
M  END
> <minimizedAffinity>
-7.17964

$$$$
ZINC000257257833


 30 33  0  0  0  0  0  0  0  0999 V2000
   -9.2213   21.6689   -2.4189 C   0  0  0  0  0  0  0  0  0  0  0  0
   -8.4854   22.3189   -1.4261 C   0  0  0  0  0  0  0  0  0  0  0  0
   -7.5783   21.6365   -0.7490 N   0  0  0  0  0  0  0  0  0  0  0  0
   -7.3639   20.3539   -1.0022 C   0  0  0  0  0  0  0  0  0  0  0  0
   -8.0423   19.7027   -1.9359 N   0  0  0  0  0  0  0  0  0  0  0  0
   -8.9691   20.3150   -2.6517 C   0  0  0  0  0  0  0  0  0  0  0  0
   -9.0061   22.6899   -5.4912 C   0  0  0  0  0  0  0  0  0  0  0  0
  -10.1709   22.8532   -4.5490 C   0  0  0  0  0  0  0  0  0  0  0  0
  -11.3057   23.4341   -4.8050 N   0  0  0  0  0  0  0  0  0  0  0  0
  -12.0495   23.4119   -3.8527 O   0  0  0  0  0  0  0  0  0  0  0  0
  -11.4938   22.7943   -2.8007 C   0  0  0  0  0  0  0  0  0  0  0  0
  -12.1185   22.5757   -1.4468 C   0  0  0  0  0  0  0  0  0  0  0  0
  -10.2507   22.3972   -3.2034 C   0  0  0  0  0  0  0  0  0  0  0  0
   -9.7353   19.5659   -3.7113 C   0  0  0  0  0  0  0  0  0  0  0  0
  -10.6770   18.5584   -3.0455 C   0  0  0  0  0  0  0  0  0  0  0  0
  -11.3926   17.7490   -4.1308 C   0  0  0  0  0  0  0  0  0  0  0  0
  -10.3512   17.0682   -5.0216 C   0  0  0  0  0  0  0  0  0  0  0  0
   -9.4992   18.0852   -5.6495 N   0  0  0  0  0  0  0  0  0  0  0  0
   -8.7552   18.8187   -4.6183 C   0  0  0  0  0  0  0  0  0  0  0  0
  -11.3060   22.8111   -3.3409 H   0  0  0  0  0  0  0  0  0  0  0  0
   -8.5510   17.4322   -6.5619 C   0  0  0  0  0  0  0  0  0  0  0  0
   -8.5225   18.1751   -7.8726 C   0  0  0  0  0  0  0  0  0  0  0  0
   -7.7565   17.8715   -8.9378 C   0  0  0  0  0  0  0  0  0  0  0  0
   -8.0424   18.7946   -9.9073 N   0  0  0  0  0  0  0  0  0  0  0  0
   -7.4488   18.8627  -11.2450 C   0  0  0  0  0  0  0  0  0  0  0  0
   -8.9738   19.6308   -9.4004 C   0  0  0  0  0  0  0  0  0  0  0  0
   -9.2597   19.2512   -8.1850 N   0  0  0  0  0  0  0  0  0  0  0  0
   -6.4046   19.6747   -0.2703 N   0  0  0  0  0  0  0  0  0  0  0  0
   -6.0648   18.2915   -0.6132 C   0  0  0  0  0  0  0  0  0  0  0  0
   -5.7292   20.3393    0.8471 C   0  0  0  0  0  0  0  0  0  0  0  0
  7  8  1  0  0  0
  8 13  1  0  0  0
  8  9  2  0  0  0
  9 10  1  0  0  0
 10 11  1  0  0  0
 11 12  1  0  0  0
 11 13  2  0  0  0
 13  1  1  0  0  0
  1  6  1  0  0  0
  1  2  2  0  0  0
  2  3  1  0  0  0
  3  4  2  0  0  0
  4 28  1  0  0  0
  4  5  1  0  0  0
 28 29  1  0  0  0
 28 30  1  0  0  0
  5  6  2  0  0  0
  6 14  1  0  0  0
 14 19  1  0  0  0
 14 15  1  0  0  0
 15 16  1  0  0  0
 16 17  1  0  0  0
 17 18  1  0  0  0
 18 21  1  0  0  0
 18 19  1  0  0  0
 21 22  1  0  0  0
 22 27  1  0  0  0
 22 23  2  0  0  0
 23 24  1  0  0  0
 24 25  1  0  0  0
 24 26  1  0  0  0
 26 27  2  0  0  0
 18 20  1  0  0  0
M  CHG 1  18   1
M  END
> <minimizedAffinity>
-6.07012

$$$$
ZINC000068764350


 23 24  0  0  0  0  0  0  0  0999 V2000
   -6.8411   18.6261  -11.3511 N   0  0  0  0  0  0  0  0  0  0  0  0
  -10.5652   18.3296   -6.2278 H   0  0  0  0  0  0  0  0  0  0  0  0
   -8.9809   17.8217   -7.8672 C   0  0  0  0  0  0  0  0  0  0  0  0
   -7.9376   16.9964   -8.2430 C   0  0  0  0  0  0  0  0  0  0  0  0
   -7.2260   17.2606   -9.3979 C   0  0  0  0  0  0  0  0  0  0  0  0
   -7.5592   18.3565  -10.1817 C   0  0  0  0  0  0  0  0  0  0  0  0
   -8.6095   19.1857   -9.8015 C   0  0  0  0  0  0  0  0  0  0  0  0
   -8.9378   20.2533  -10.5614 F   0  0  0  0  0  0  0  0  0  0  0  0
   -9.3205   18.9119   -8.6480 C   0  0  0  0  0  0  0  0  0  0  0  0
  -10.4187   16.5262   -6.5516 O   0  0  0  0  0  0  0  0  0  0  0  0
   -9.7402   17.5347   -6.6296 N   0  0  0  0  0  0  0  0  0  0  0  0
   -9.6826   18.3045   -5.6875 O   0  0  0  0  0  0  0  0  0  0  0  0
   -5.8521   17.6632  -11.8418 C   0  0  0  0  0  0  0  0  0  0  0  0
   -6.4241   16.9139  -13.0469 C   0  0  0  0  0  0  0  0  0  0  0  0
   -6.3805   15.4682  -12.7904 N   0  0  0  0  0  0  0  0  0  0  0  0
   -7.6729   14.9832  -12.2896 C   0  0  0  0  0  0  0  0  0  0  0  0
   -7.6364   13.4579  -12.1725 C   0  0  0  0  0  0  0  0  0  0  0  0
   -6.5122   13.0511  -11.2159 C   0  0  0  0  0  0  0  0  0  0  0  0
   -5.1841   13.6094  -11.7347 C   0  0  0  0  0  0  0  0  0  0  0  0
   -5.2918   15.1305  -11.8646 C   0  0  0  0  0  0  0  0  0  0  0  0
   -6.4310   11.5250  -11.1416 C   0  0  0  0  0  0  0  0  0  0  0  0
   -7.6754   10.9609  -11.5602 O   0  0  0  0  0  0  0  0  0  0  0  0
   -0.0433   23.1680   -9.1384 H   0  0  0  0  0  0  0  0  0  0  0  0
 10 11  1  0  0  0
 11 12  2  0  0  0
 11  3  1  0  0  0
  3  9  2  0  0  0
  3  4  1  0  0  0
  4  5  2  0  0  0
  5  6  1  0  0  0
  6  1  1  0  0  0
  6  7  2  0  0  0
  1 13  1  0  0  0
 13 14  1  0  0  0
 14 15  1  0  0  0
 15 20  1  0  0  0
 15 16  1  0  0  0
 16 17  1  0  0  0
 17 18  1  0  0  0
 18 21  1  0  0  0
 18 19  1  0  0  0
 21 22  1  0  0  0
 19 20  1  0  0  0
  7  8  1  0  0  0
  7  9  1  0  0  0
  1  2  1  0  0  0
 22 23  1  0  0  0
M  CHG 1  10  -1
M  CHG 1  11   1
M  END
> <minimizedAffinity>
-7.08784

$$$$
ZINC000019751022


 32 35  0  0  0  0  0  0  0  0999 V2000
   -6.9173   14.0134  -11.5528 N   0  0  0  0  0  0  0  0  0  0  0  0
   -7.3257   14.5310  -10.3795 C   0  0  0  0  0  0  0  0  0  0  0  0
   -6.6747   15.6161   -9.8291 C   0  0  0  0  0  0  0  0  0  0  0  0
   -5.5697   16.1841  -10.5085 C   0  0  0  0  0  0  0  0  0  0  0  0
   -5.1750   15.6439  -11.6923 C   0  0  0  0  0  0  0  0  0  0  0  0
   -5.8666   14.5338  -12.2125 C   0  0  0  0  0  0  0  0  0  0  0  0
   -5.5161   14.0455  -13.2738 O   0  0  0  0  0  0  0  0  0  0  0  0
   -7.1258   16.1796   -8.5433 C   0  0  0  0  0  0  0  0  0  0  0  0
   -7.2467   15.4577   -7.5721 O   0  0  0  0  0  0  0  0  0  0  0  0
   -7.4044   17.4945   -8.4444 N   0  0  0  0  0  0  0  0  0  0  0  0
   -7.3666   18.3591   -9.6318 C   0  0  0  0  0  0  0  0  0  0  0  0
   -8.7020   19.1011   -9.7441 C   0  0  0  0  0  0  0  0  0  0  0  0
   -8.9804   19.8433   -8.4350 C   0  0  0  0  0  0  0  0  0  0  0  0
   -9.0826   18.8358   -7.2874 C   0  0  0  0  0  0  0  0  0  0  0  0
   -7.7574   18.0896   -7.1482 C   0  0  0  0  0  0  0  0  0  0  0  0
   -9.3942   19.5755   -5.9848 C   0  0  0  0  0  0  0  0  0  0  0  0
   -9.3935   18.6216   -4.8677 N   0  0  0  0  0  0  0  0  0  0  0  0
   -8.6746   19.1978   -3.7027 C   0  0  0  0  0  0  0  0  0  0  0  0
   -9.2298   18.3848   -2.5061 C   0  0  0  0  0  0  0  0  0  0  0  0
  -10.7182   18.1947   -2.8783 C   0  0  0  0  0  0  0  0  0  0  0  0
  -10.7771   18.3740   -4.4076 C   0  0  0  0  0  0  0  0  0  0  0  0
   -3.3338   25.4637  -11.1435 H   0  0  0  0  0  0  0  0  0  0  0  0
   -7.6245   12.8615  -12.1178 C   0  0  0  0  0  0  0  0  0  0  0  0
   -7.8117   10.6916  -11.2084 O   0  0  0  0  0  0  0  0  0  0  0  0
   -7.0649   11.5912  -11.5308 C   0  0  0  0  0  0  0  0  0  0  0  0
   -5.7348   11.4571  -11.3590 N   0  0  0  0  0  0  0  0  0  0  0  0
   -9.2470   16.0146  -13.3658 H   0  0  0  0  0  0  0  0  0  0  0  0
   -5.2191   10.2878  -10.8123 C   0  0  0  0  0  0  0  0  0  0  0  0
   -5.2050   10.0026   -9.5479 N   0  0  0  0  0  0  0  0  0  0  0  0
   -4.6755    8.8440   -9.2026 C   0  0  0  0  0  0  0  0  0  0  0  0
   -4.2205    8.1154  -10.2240 C   0  0  0  0  0  0  0  0  0  0  0  0
   -4.5178    9.0131  -11.7104 S   0  0  0  0  0  0  0  0  0  0  0  0
 24 25  2  0  0  0
 25 23  1  0  0  0
 25 26  1  0  0  0
 23  1  1  0  0  0
  1  6  1  0  0  0
  1  2  1  0  0  0
  2  3  2  0  0  0
  3  8  1  0  0  0
  3  4  1  0  0  0
  8  9  2  0  0  0
  8 10  1  0  0  0
 10 15  1  0  0  0
 10 11  1  0  0  0
 11 12  1  0  0  0
 12 13  1  0  0  0
 13 14  1  0  0  0
 14 16  1  0  0  0
 14 15  1  0  0  0
 16 17  1  0  0  0
 17 21  1  0  0  0
 17 18  1  0  0  0
 18 19  1  0  0  0
 19 20  1  0  0  0
 20 21  1  0  0  0
  4  5  2  0  0  0
  5  6  1  0  0  0
  6  7  2  0  0  0
 26 28  1  0  0  0
 28 32  1  0  0  0
 28 29  2  0  0  0
 29 30  1  0  0  0
 30 31  2  0  0  0
 31 32  1  0  0  0
 17 22  1  0  0  0
 26 27  1  0  0  0
M  CHG 1  17   1
M  END
> <minimizedAffinity>
-8.38063

$$$$
ZINC000101306885


 28 30  0  0  0  0  0  0  0  0999 V2000
   -9.6654   16.3570   -5.3714 N   0  0  0  0  0  0  0  0  0  0  0  0
   -8.8377   15.2773   -5.1286 C   0  0  0  0  0  0  0  0  0  0  0  0
   -7.8374   14.8684   -5.9008 N   0  0  0  0  0  0  0  0  0  0  0  0
   -9.3542   14.5291   -3.5870 S   0  0  0  0  0  0  0  0  0  0  0  0
  -10.2178   16.0249   -3.0774 C   0  0  0  0  0  0  0  0  0  0  0  0
  -11.3999   15.9556   -2.1444 C   0  0  0  0  0  0  0  0  0  0  0  0
  -12.2064   17.5731   -2.5306 S   0  0  0  0  0  0  0  0  0  0  0  0
  -13.6131   17.3907   -2.6165 O   0  0  0  0  0  0  0  0  0  0  0  0
  -11.6730   18.5812   -1.6830 O   0  0  0  0  0  0  0  0  0  0  0  0
  -11.5090   17.7601   -4.2247 C   0  0  0  0  0  0  0  0  0  0  0  0
  -10.8058   16.4275   -4.4755 C   0  0  0  0  0  0  0  0  0  0  0  0
   -8.7464   18.4788   -6.0889 C   0  0  0  0  0  0  0  0  0  0  0  0
   -8.5107   19.4044   -7.0918 C   0  0  0  0  0  0  0  0  0  0  0  0
   -8.9524   19.1575   -8.3788 C   0  0  0  0  0  0  0  0  0  0  0  0
   -9.6301   17.9882   -8.6686 C   0  0  0  0  0  0  0  0  0  0  0  0
   -9.8695   17.0591   -7.6734 C   0  0  0  0  0  0  0  0  0  0  0  0
   -9.4241   17.2968   -6.3816 C   0  0  0  0  0  0  0  0  0  0  0  0
   -8.9078   19.8205   -4.1321 C   0  0  0  0  0  0  0  0  0  0  0  0
   -8.3128   18.7201   -4.8229 O   0  0  0  0  0  0  0  0  0  0  0  0
   -7.4522   15.6079   -6.9377 C   0  0  0  0  0  0  0  0  0  0  0  0
   -6.7539   16.5870   -6.7601 O   0  0  0  0  0  0  0  0  0  0  0  0
   -7.8815   15.2316   -8.3324 C   0  0  0  0  0  0  0  0  0  0  0  0
   -7.6646   13.8341   -8.5368 O   0  0  0  0  0  0  0  0  0  0  0  0
   -6.6192   13.5378   -9.4650 C   0  0  0  0  0  0  0  0  0  0  0  0
   -6.3189   12.0615   -9.4289 C   0  0  0  0  0  0  0  0  0  0  0  0
   -5.7165   11.5392  -10.3513 O   0  0  0  0  0  0  0  0  0  0  0  0
   -6.6785   11.3893   -8.4774 O   0  0  0  0  0  0  0  0  0  0  0  0
   -8.8364   15.3920  -12.6705 H   0  0  0  0  0  0  0  0  0  0  0  0
 18 19  1  0  0  0
 19 12  1  0  0  0
 12 17  2  0  0  0
 12 13  1  0  0  0
 13 14  2  0  0  0
 14 15  1  0  0  0
 15 16  2  0  0  0
 16 17  1  0  0  0
 17  1  1  0  0  0
  1 11  1  0  0  0
  1  2  1  0  0  0
  2  3  2  0  0  0
  2  4  1  0  0  0
  3 20  1  0  0  0
 20 21  2  0  0  0
 20 22  1  0  0  0
 22 23  1  0  0  0
 23 24  1  0  0  0
 24 25  1  0  0  0
 25 26  2  0  0  0
 25 27  1  0  0  0
  4  5  1  0  0  0
  5 11  1  0  0  0
  5  6  1  0  0  0
  6  7  1  0  0  0
  7  8  2  0  0  0
  7  9  2  0  0  0
  7 10  1  0  0  0
 10 11  1  0  0  0
 27 28  1  0  0  0
M  END
> <minimizedAffinity>
-6.38020

$$$$
ZINC000000169243


 20 21  0  0  0  0  0  0  0  0999 V2000
   -7.2261   12.8683  -11.7696 C   0  0  0  0  0  0  0  0  0  0  0  0
   -8.2291   14.0143  -11.6182 C   0  0  0  0  0  0  0  0  0  0  0  0
   -7.9043   15.1100  -12.6384 C   0  0  0  0  0  0  0  0  0  0  0  0
   -6.5006   15.5106  -12.4713 N   0  0  0  0  0  0  0  0  0  0  0  0
   -5.4607   14.4734  -12.5089 C   0  0  0  0  0  0  0  0  0  0  0  0
   -5.8129   13.3848  -11.4903 C   0  0  0  0  0  0  0  0  0  0  0  0
   -8.2587   10.8353  -11.1408 O   0  0  0  0  0  0  0  0  0  0  0  0
   -7.5632   11.7735  -10.7906 C   0  0  0  0  0  0  0  0  0  0  0  0
   -7.1365   11.8233   -9.6496 O   0  0  0  0  0  0  0  0  0  0  0  0
   -8.2548   10.8382  -11.1421 H   0  0  0  0  0  0  0  0  0  0  0  0
   -6.0984   17.1009  -12.2443 S   0  0  0  0  0  0  0  0  0  0  0  0
   -4.6934   17.1333  -12.0334 O   0  0  0  0  0  0  0  0  0  0  0  0
   -6.7462   17.8301  -13.2777 O   0  0  0  0  0  0  0  0  0  0  0  0
   -6.8406   17.6158  -10.7315 C   0  0  0  0  0  0  0  0  0  0  0  0
   -6.5717   16.9305   -9.5615 C   0  0  0  0  0  0  0  0  0  0  0  0
   -7.1534   17.3343   -8.3744 C   0  0  0  0  0  0  0  0  0  0  0  0
   -8.0046   18.4244   -8.3574 C   0  0  0  0  0  0  0  0  0  0  0  0
   -8.8003   18.9778   -6.7336 Br  0  0  0  0  0  0  0  0  0  0  0  0
   -8.2735   19.1100   -9.5284 C   0  0  0  0  0  0  0  0  0  0  0  0
   -7.6871   18.7086  -10.7140 C   0  0  0  0  0  0  0  0  0  0  0  0
  7  8  2  0  0  0
  8  9  1  0  0  0
  8  1  1  0  0  0
  1  6  1  0  0  0
  1  2  1  0  0  0
  2  3  1  0  0  0
  3  4  1  0  0  0
  4 11  1  0  0  0
  4  5  1  0  0  0
 11 12  2  0  0  0
 11 13  2  0  0  0
 11 14  1  0  0  0
 14 20  1  0  0  0
 14 15  2  0  0  0
 15 16  1  0  0  0
 16 17  2  0  0  0
 17 18  1  0  0  0
 17 19  1  0  0  0
 19 20  2  0  0  0
  5  6  1  0  0  0
  9 10  1  0  0  0
M  END
> <minimizedAffinity>
-7.60133

$$$$
ZINC000004750017


 24 25  0  0  0  0  0  0  0  0999 V2000
   -6.7415   18.1302  -12.3611 C   0  0  0  0  0  0  0  0  0  0  0  0
   -6.8221   18.4066  -10.8819 C   0  0  0  0  0  0  0  0  0  0  0  0
   -5.8637   18.8662  -10.2978 O   0  0  0  0  0  0  0  0  0  0  0  0
   -7.9591   18.1431  -10.2080 N   0  0  0  0  0  0  0  0  0  0  0  0
   -3.5462   18.1284  -15.9448 H   0  0  0  0  0  0  0  0  0  0  0  0
   -8.0678   18.4877   -8.8907 N   0  0  0  0  0  0  0  0  0  0  0  0
   -8.2225   17.2953   -8.0454 C   0  0  0  0  0  0  0  0  0  0  0  0
   -8.2807   17.7192   -6.5762 C   0  0  0  0  0  0  0  0  0  0  0  0
   -9.4126   18.6334   -6.3747 N   0  0  0  0  0  0  0  0  0  0  0  0
   -9.4787   19.0262   -4.9608 C   0  0  0  0  0  0  0  0  0  0  0  0
   -9.2316   19.8303   -7.2068 C   0  0  0  0  0  0  0  0  0  0  0  0
   -9.1813   19.4239   -8.6812 C   0  0  0  0  0  0  0  0  0  0  0  0
   -3.4555   17.8584  -15.8667 H   0  0  0  0  0  0  0  0  0  0  0  0
   -5.7668   17.1137  -12.6033 O   0  0  0  0  0  0  0  0  0  0  0  0
   -9.0761   13.5261  -12.5840 C   0  0  0  0  0  0  0  0  0  0  0  0
   -7.7083   14.0582  -12.2417 C   0  0  0  0  0  0  0  0  0  0  0  0
   -7.3658   15.3518  -12.5837 C   0  0  0  0  0  0  0  0  0  0  0  0
   -6.1063   15.8411  -12.2682 C   0  0  0  0  0  0  0  0  0  0  0  0
   -5.1943   15.0293  -11.6098 C   0  0  0  0  0  0  0  0  0  0  0  0
   -5.5419   13.7360  -11.2699 C   0  0  0  0  0  0  0  0  0  0  0  0
   -6.7994   13.2527  -11.5804 C   0  0  0  0  0  0  0  0  0  0  0  0
   -7.1695   11.8672  -11.2145 N   0  0  0  0  0  0  0  0  0  0  0  0
   -7.5425   11.6150  -10.0828 O   0  0  0  0  0  0  0  0  0  0  0  0
   -7.1010   10.9790  -12.0453 O   0  0  0  0  0  0  0  0  0  0  0  0
 15 16  1  0  0  0
 16 21  2  0  0  0
 16 17  1  0  0  0
 17 18  2  0  0  0
 18 14  1  0  0  0
 18 19  1  0  0  0
 14  1  1  0  0  0
  1  2  1  0  0  0
  2  3  2  0  0  0
  2  4  1  0  0  0
  4  6  1  0  0  0
  6 12  1  0  0  0
  6  7  1  0  0  0
  7  8  1  0  0  0
  8  9  1  0  0  0
  9 10  1  0  0  0
  9 11  1  0  0  0
 11 12  1  0  0  0
 19 20  2  0  0  0
 20 21  1  0  0  0
 21 22  1  0  0  0
 22 23  1  0  0  0
 22 24  2  0  0  0
  4  5  1  0  0  0
  9 13  1  0  0  0
M  CHG 1   9   1
M  CHG 1  22   1
M  CHG 1  23  -1
M  END
> <minimizedAffinity>
-7.03111

$$$$
ZINC000071920360


 26 27  0  0  0  0  0  0  0  0999 V2000
   -7.7378   15.6839   -8.2513 N   0  0  0  0  0  0  0  0  0  0  0  0
   -8.7731   15.5492   -7.3991 C   0  0  0  0  0  0  0  0  0  0  0  0
   -9.2984   14.4655   -7.2489 O   0  0  0  0  0  0  0  0  0  0  0  0
   -4.5737   11.2472  -10.6919 H   0  0  0  0  0  0  0  0  0  0  0  0
   -6.6786   14.0769  -11.3167 N   0  0  0  0  0  0  0  0  0  0  0  0
   -5.5078   13.7608  -10.4711 C   0  0  0  0  0  0  0  0  0  0  0  0
   -5.7088   14.6024   -9.1863 C   0  0  0  0  0  0  0  0  0  0  0  0
   -7.2465   14.5223   -8.9965 C   0  0  0  0  0  0  0  0  0  0  0  0
   -7.7767   14.5349  -10.4458 C   0  0  0  0  0  0  0  0  0  0  0  0
   -7.0869   12.9089  -12.1085 C   0  0  0  0  0  0  0  0  0  0  0  0
   -7.1738   11.6815  -11.1993 C   0  0  0  0  0  0  0  0  0  0  0  0
   -5.1591   10.3844  -11.1356 C   0  0  0  0  0  0  0  0  0  0  0  0
   -6.4190   10.6111  -11.7707 O   0  0  0  0  0  0  0  0  0  0  0  0
   -9.2740   16.7333   -6.6394 C   0  0  0  0  0  0  0  0  0  0  0  0
  -10.4413   16.7952   -6.3124 O   0  0  0  0  0  0  0  0  0  0  0  0
   -8.4299   17.7333   -6.3169 N   0  0  0  0  0  0  0  0  0  0  0  0
   -8.5644   10.1651  -11.6362 H   0  0  0  0  0  0  0  0  0  0  0  0
   -8.9168   18.8843   -5.6882 C   0  0  0  0  0  0  0  0  0  0  0  0
   -9.0100   18.9338   -4.3038 C   0  0  0  0  0  0  0  0  0  0  0  0
   -9.4915   20.0708   -3.6837 C   0  0  0  0  0  0  0  0  0  0  0  0
   -9.8818   21.1622   -4.4405 C   0  0  0  0  0  0  0  0  0  0  0  0
  -10.3525   22.2720   -3.8309 F   0  0  0  0  0  0  0  0  0  0  0  0
   -9.7897   21.1181   -5.8237 C   0  0  0  0  0  0  0  0  0  0  0  0
  -10.1708   22.1845   -6.5604 F   0  0  0  0  0  0  0  0  0  0  0  0
   -9.3030   19.9830   -6.4489 C   0  0  0  0  0  0  0  0  0  0  0  0
   -9.2129   19.9386   -7.7961 F   0  0  0  0  0  0  0  0  0  0  0  0
 12 13  1  0  0  0
 13 11  1  0  0  0
 11 10  1  0  0  0
 10  5  1  0  0  0
  5  9  1  0  0  0
  5  6  1  0  0  0
  6  7  1  0  0  0
  7  8  1  0  0  0
  8  1  1  0  0  0
  8  9  1  0  0  0
  1  2  1  0  0  0
  2  3  2  0  0  0
  2 14  1  0  0  0
 14 15  2  0  0  0
 14 16  1  0  0  0
 16 18  1  0  0  0
 18 25  1  0  0  0
 18 19  2  0  0  0
 19 20  1  0  0  0
 20 21  2  0  0  0
 21 22  1  0  0  0
 21 23  1  0  0  0
 23 24  1  0  0  0
 23 25  2  0  0  0
 25 26  1  0  0  0
  1  4  1  0  0  0
 16 17  1  0  0  0
M  END
> <minimizedAffinity>
-6.87504

$$$$
ZINC000004819284


 28 29  0  0  0  0  0  0  0  0999 V2000
   -6.5080   14.6020   -9.8466 N   0  0  0  0  0  0  0  0  0  0  0  0
   -1.7085   10.7740   -7.4941 H   0  0  0  0  0  0  0  0  0  0  0  0
   -6.5795   15.6550  -10.7615 C   0  0  0  0  0  0  0  0  0  0  0  0
   -6.6993   16.9628  -10.3094 C   0  0  0  0  0  0  0  0  0  0  0  0
   -6.7693   18.0018  -11.2168 C   0  0  0  0  0  0  0  0  0  0  0  0
   -6.7202   17.7412  -12.5738 C   0  0  0  0  0  0  0  0  0  0  0  0
   -6.6009   16.4401  -13.0273 C   0  0  0  0  0  0  0  0  0  0  0  0
   -6.5251   15.3971  -12.1256 C   0  0  0  0  0  0  0  0  0  0  0  0
   -6.7963   18.8774  -13.5608 C   0  0  0  0  0  0  0  0  0  0  0  0
   -7.7105   19.8323  -13.1030 F   0  0  0  0  0  0  0  0  0  0  0  0
   -5.5340   19.4659  -13.6927 F   0  0  0  0  0  0  0  0  0  0  0  0
   -7.2151   18.3888  -14.8030 F   0  0  0  0  0  0  0  0  0  0  0  0
   -6.3975   14.0051  -12.6117 N   0  0  0  0  0  0  0  0  0  0  0  0
   -5.3144   13.5844  -12.9771 O   0  0  0  0  0  0  0  0  0  0  0  0
   -7.3756   13.2800  -12.6464 O   0  0  0  0  0  0  0  0  0  0  0  0
   -5.2395   14.2944   -9.1815 C   0  0  0  0  0  0  0  0  0  0  0  0
   -5.2054   14.9718   -7.8100 C   0  0  0  0  0  0  0  0  0  0  0  0
   -6.3889   14.4853   -6.9713 C   0  0  0  0  0  0  0  0  0  0  0  0
   -9.0346   14.3865   -7.4770 O   0  0  0  0  0  0  0  0  0  0  0  0
   -8.6290   15.4418   -7.0382 C   0  0  0  0  0  0  0  0  0  0  0  0
   -7.3208   15.5944   -6.7521 N   0  0  0  0  0  0  0  0  0  0  0  0
   -8.5829   14.7787   -9.1870 H   0  0  0  0  0  0  0  0  0  0  0  0
   -9.5886   16.5806   -6.8070 C   0  0  0  0  0  0  0  0  0  0  0  0
   -8.9138   17.8544   -7.0898 N   0  0  0  0  0  0  0  0  0  0  0  0
   -9.3944   18.4392   -8.3678 C   0  0  0  0  0  0  0  0  0  0  0  0
   -9.0126   19.9353   -8.2389 C   0  0  0  0  0  0  0  0  0  0  0  0
   -9.2726   20.2307   -6.7439 C   0  0  0  0  0  0  0  0  0  0  0  0
   -9.2184   18.8584   -6.0473 C   0  0  0  0  0  0  0  0  0  0  0  0
 19 20  2  0  0  0
 20 23  1  0  0  0
 20 21  1  0  0  0
 23 24  1  0  0  0
 24 28  1  0  0  0
 24 25  1  0  0  0
 25 26  1  0  0  0
 26 27  1  0  0  0
 27 28  1  0  0  0
 21 18  1  0  0  0
 18 17  1  0  0  0
 17 16  1  0  0  0
 16  1  1  0  0  0
  1  3  1  0  0  0
  3  8  1  0  0  0
  3  4  2  0  0  0
  4  5  1  0  0  0
  5  6  2  0  0  0
  6  9  1  0  0  0
  6  7  1  0  0  0
  9 10  1  0  0  0
  9 11  1  0  0  0
  9 12  1  0  0  0
  7  8  2  0  0  0
  8 13  1  0  0  0
 13 14  1  0  0  0
 13 15  2  0  0  0
 21 22  1  0  0  0
  1  2  1  0  0  0
M  CHG 1  13   1
M  CHG 1  14  -1
M  END
> <minimizedAffinity>
-7.48588

$$$$
ZINC000306129835


 26 29  0  0  0  0  0  0  0  0999 V2000
   -9.3587   15.5220   -7.2961 C   0  0  0  0  0  0  0  0  0  0  0  0
   -9.1456   15.5952   -5.7754 C   0  0  0  0  0  0  0  0  0  0  0  0
   -9.8928   16.7764   -5.2955 N   0  0  0  0  0  0  0  0  0  0  0  0
  -10.9834   16.7949   -4.4262 N   0  0  0  0  0  0  0  0  0  0  0  0
  -11.3425   18.0456   -4.2588 C   0  0  0  0  0  0  0  0  0  0  0  0
  -10.4868   18.8533   -5.0205 C   0  0  0  0  0  0  0  0  0  0  0  0
   -9.6097   18.0429   -5.6448 C   0  0  0  0  0  0  0  0  0  0  0  0
   -8.4879   18.4495   -6.5844 C   0  0  0  0  0  0  0  0  0  0  0  0
   -8.8180   17.9035   -7.9139 N   0  0  0  0  0  0  0  0  0  0  0  0
   -8.4646   16.5042   -8.0111 C   0  0  0  0  0  0  0  0  0  0  0  0
  -13.7967   10.9882   -7.8604 H   0  0  0  0  0  0  0  0  0  0  0  0
   -8.0825   18.6562   -8.9387 C   0  0  0  0  0  0  0  0  0  0  0  0
   -7.4748   17.6820   -9.9525 C   0  0  0  0  0  0  0  0  0  0  0  0
   -6.7777   18.4781  -11.0589 C   0  0  0  0  0  0  0  0  0  0  0  0
   -7.7188   19.3594  -11.6751 O   0  0  0  0  0  0  0  0  0  0  0  0
   -8.2847   20.3236  -10.7850 C   0  0  0  0  0  0  0  0  0  0  0  0
   -9.0424   19.6016   -9.6676 C   0  0  0  0  0  0  0  0  0  0  0  0
   -9.0613   14.1996   -7.7490 O   0  0  0  0  0  0  0  0  0  0  0  0
   -6.8202   13.8636  -11.1441 C   0  0  0  0  0  0  0  0  0  0  0  0
   -6.1601   13.9257   -9.9081 C   0  0  0  0  0  0  0  0  0  0  0  0
   -6.9222   14.0392   -8.7630 C   0  0  0  0  0  0  0  0  0  0  0  0
   -8.3081   14.0881   -8.8704 C   0  0  0  0  0  0  0  0  0  0  0  0
   -8.9023   14.0277  -10.0521 N   0  0  0  0  0  0  0  0  0  0  0  0
   -8.2146   13.9246  -11.1701 C   0  0  0  0  0  0  0  0  0  0  0  0
   -5.4837   13.6517  -13.3266 N   0  0  0  0  0  0  0  0  0  0  0  0
   -6.0750   13.7454  -12.3611 C   0  0  0  0  0  0  0  0  0  0  0  0
 25 26  3  0  0  0
 26 19  1  0  0  0
 19 24  2  0  0  0
 19 20  1  0  0  0
 20 21  2  0  0  0
 21 22  1  0  0  0
 22 18  1  0  0  0
 22 23  2  0  0  0
 18  1  1  0  0  0
  1 10  1  0  0  0
  1  2  1  0  0  0
  2  3  1  0  0  0
  3  7  1  0  0  0
  3  4  1  0  0  0
  4  5  2  0  0  0
  5  6  1  0  0  0
  6  7  2  0  0  0
  7  8  1  0  0  0
  8  9  1  0  0  0
  9 12  1  0  0  0
  9 10  1  0  0  0
 12 17  1  0  0  0
 12 13  1  0  0  0
 13 14  1  0  0  0
 14 15  1  0  0  0
 15 16  1  0  0  0
 16 17  1  0  0  0
 23 24  1  0  0  0
  9 11  1  0  0  0
M  CHG 1   9   1
M  END
> <minimizedAffinity>
-8.08329

$$$$
ZINC000575423090


 29 30  0  0  0  0  0  0  0  0999 V2000
   -6.5609   15.3774  -10.7194 N   0  0  0  0  0  0  0  0  0  0  0  0
   -5.5875   14.3334  -11.0668 C   0  0  0  0  0  0  0  0  0  0  0  0
   -5.1751   13.5864   -9.7823 C   0  0  0  0  0  0  0  0  0  0  0  0
   -6.2892   12.1244   -9.7837 S   0  0  0  0  0  0  0  0  0  0  0  0
   -5.6312   11.0170   -9.1838 O   0  0  0  0  0  0  0  0  0  0  0  0
   -7.5867   12.5072   -9.3486 O   0  0  0  0  0  0  0  0  0  0  0  0
   -6.2728   11.9427  -11.6128 C   0  0  0  0  0  0  0  0  0  0  0  0
   -6.2095   13.4018  -12.0999 C   0  0  0  0  0  0  0  0  0  0  0  0
   -5.4287   13.4579  -13.2953 O   0  0  0  0  0  0  0  0  0  0  0  0
  -13.5514   14.6046   -7.1955 H   0  0  0  0  0  0  0  0  0  0  0  0
   -6.2380   15.9874   -9.4225 C   0  0  0  0  0  0  0  0  0  0  0  0
   -7.5066   16.1981   -8.6369 C   0  0  0  0  0  0  0  0  0  0  0  0
   -8.1233   15.2434   -8.2133 O   0  0  0  0  0  0  0  0  0  0  0  0
   -8.9226   20.1299   -7.9006 C   0  0  0  0  0  0  0  0  0  0  0  0
   -8.8408   19.2154   -6.8587 C   0  0  0  0  0  0  0  0  0  0  0  0
   -8.3815   17.9383   -7.0928 C   0  0  0  0  0  0  0  0  0  0  0  0
   -7.9963   17.5595   -8.3841 C   0  0  0  0  0  0  0  0  0  0  0  0
   -8.0796   18.4824   -9.4344 C   0  0  0  0  0  0  0  0  0  0  0  0
   -8.5459   19.7583   -9.1916 C   0  0  0  0  0  0  0  0  0  0  0  0
   -9.4516   21.8028   -6.2982 C   0  0  0  0  0  0  0  0  0  0  0  0
   -9.3757   21.3873   -7.6634 O   0  0  0  0  0  0  0  0  0  0  0  0
   -8.6282   20.6571  -10.2090 O   0  0  0  0  0  0  0  0  0  0  0  0
   -8.2787   20.1930  -11.5146 C   0  0  0  0  0  0  0  0  0  0  0  0
   -6.6399   16.3958  -11.7751 C   0  0  0  0  0  0  0  0  0  0  0  0
   -5.2277   16.8374  -12.1644 C   0  0  0  0  0  0  0  0  0  0  0  0
   -5.2825   18.1745  -12.7704 N   0  0  0  0  0  0  0  0  0  0  0  0
  -13.7209   12.1329  -12.7194 H   0  0  0  0  0  0  0  0  0  0  0  0
  -13.7209   12.1329  -12.7194 H   0  0  0  0  0  0  0  0  0  0  0  0
  -13.7209   12.1329  -12.7194 H   0  0  0  0  0  0  0  0  0  0  0  0
 20 21  1  0  0  0
 21 14  1  0  0  0
 14 19  2  0  0  0
 14 15  1  0  0  0
 15 16  2  0  0  0
 16 17  1  0  0  0
 17 12  1  0  0  0
 17 18  2  0  0  0
 12 13  2  0  0  0
 12 11  1  0  0  0
 11  1  1  0  0  0
  1 24  1  0  0  0
  1  2  1  0  0  0
 24 25  1  0  0  0
 25 26  1  0  0  0
  2  8  1  0  0  0
  2  3  1  0  0  0
  3  4  1  0  0  0
  4  5  2  0  0  0
  4  6  2  0  0  0
  4  7  1  0  0  0
  7  8  1  0  0  0
  8  9  1  0  0  0
 18 19  1  0  0  0
 19 22  1  0  0  0
 22 23  1  0  0  0
 26 27  1  0  0  0
 26 28  1  0  0  0
 26 29  1  0  0  0
  9 10  1  0  0  0
M  CHG 1  26   1
M  END
> <minimizedAffinity>
-7.05473

$$$$
ZINC000328594113


 26 28  0  0  0  0  0  0  0  0999 V2000
   -8.5809   15.4872   -7.2342 S   0  0  0  0  0  0  0  0  0  0  0  0
   -9.4166   14.4138   -6.8236 O   0  0  0  0  0  0  0  0  0  0  0  0
   -7.5972   16.0724   -6.3920 O   0  0  0  0  0  0  0  0  0  0  0  0
   -6.4067   14.0691  -10.9434 C   0  0  0  0  0  0  0  0  0  0  0  0
   -5.6903   14.4390   -9.8210 C   0  0  0  0  0  0  0  0  0  0  0  0
   -6.3545   14.8721   -8.6884 C   0  0  0  0  0  0  0  0  0  0  0  0
   -7.7351   14.9352   -8.6781 C   0  0  0  0  0  0  0  0  0  0  0  0
   -8.4526   14.5657   -9.8004 C   0  0  0  0  0  0  0  0  0  0  0  0
   -7.7884   14.1370  -10.9353 C   0  0  0  0  0  0  0  0  0  0  0  0
   -8.7693   13.6315  -12.4710 Br  0  0  0  0  0  0  0  0  0  0  0  0
   -5.4559   14.3889  -13.0578 O   0  0  0  0  0  0  0  0  0  0  0  0
   -5.6956   13.6059  -12.1561 N   0  0  0  0  0  0  0  0  0  0  0  0
   -5.3457   12.4431  -12.2501 O   0  0  0  0  0  0  0  0  0  0  0  0
   -9.5907   16.7154   -7.6970 N   0  0  0  0  0  0  0  0  0  0  0  0
   -9.8521   10.2819  -11.2492 H   0  0  0  0  0  0  0  0  0  0  0  0
   -9.4202   17.9846   -7.1751 C   0  0  0  0  0  0  0  0  0  0  0  0
   -9.7821   18.3842   -5.9747 N   0  0  0  0  0  0  0  0  0  0  0  0
   -9.4626   19.6691   -5.8130 C   0  0  0  0  0  0  0  0  0  0  0  0
   -8.8934   20.1101   -6.9029 N   0  0  0  0  0  0  0  0  0  0  0  0
   -8.8464   19.0352   -7.8055 N   0  0  0  0  0  0  0  0  0  0  0  0
   -8.3187   19.0505   -9.1039 C   0  0  0  0  0  0  0  0  0  0  0  0
   -8.9648   19.7575  -10.1091 C   0  0  0  0  0  0  0  0  0  0  0  0
   -8.4420   19.7709  -11.3875 C   0  0  0  0  0  0  0  0  0  0  0  0
   -7.2765   19.0813  -11.6667 C   0  0  0  0  0  0  0  0  0  0  0  0
   -6.6307   18.3764  -10.6677 C   0  0  0  0  0  0  0  0  0  0  0  0
   -7.1456   18.3633   -9.3861 C   0  0  0  0  0  0  0  0  0  0  0  0
 11 12  1  0  0  0
 12 13  2  0  0  0
 12  4  1  0  0  0
  4  9  2  0  0  0
  4  5  1  0  0  0
  5  6  2  0  0  0
  6  7  1  0  0  0
  7  1  1  0  0  0
  7  8  2  0  0  0
  1  2  2  0  0  0
  1  3  2  0  0  0
  1 14  1  0  0  0
 14 16  1  0  0  0
 16 20  1  0  0  0
 16 17  2  0  0  0
 17 18  1  0  0  0
 18 19  2  0  0  0
 19 20  1  0  0  0
 20 21  1  0  0  0
 21 26  1  0  0  0
 21 22  2  0  0  0
 22 23  1  0  0  0
 23 24  2  0  0  0
 24 25  1  0  0  0
 25 26  2  0  0  0
  8  9  1  0  0  0
  9 10  1  0  0  0
 14 15  1  0  0  0
M  CHG 1  11  -1
M  CHG 1  12   1
M  END
> <minimizedAffinity>
-8.61980

$$$$
ZINC000001722914


 30 32  0  0  0  0  0  0  0  0999 V2000
  -10.0014   20.4621   -5.1247 C   0  0  0  0  0  0  0  0  0  0  0  0
   -9.3767   19.5969   -6.1887 C   0  0  0  0  0  0  0  0  0  0  0  0
   -9.2086   20.0915   -7.4456 C   0  0  0  0  0  0  0  0  0  0  0  0
   -8.6250   19.2881   -8.4460 C   0  0  0  0  0  0  0  0  0  0  0  0
   -8.2205   17.9718   -8.1263 C   0  0  0  0  0  0  0  0  0  0  0  0
   -8.4041   17.4911   -6.8333 C   0  0  0  0  0  0  0  0  0  0  0  0
   -8.9725   18.3014   -5.8738 C   0  0  0  0  0  0  0  0  0  0  0  0
   -9.1995   17.6975   -4.2621 Cl  0  0  0  0  0  0  0  0  0  0  0  0
   -7.6477   17.1666   -9.0882 N   0  0  0  0  0  0  0  0  0  0  0  0
   -7.4835   17.6701  -10.3438 C   0  0  0  0  0  0  0  0  0  0  0  0
   -6.9436   16.9636  -11.3231 N   0  0  0  0  0  0  0  0  0  0  0  0
   -6.7907   17.4698  -12.5440 C   0  0  0  0  0  0  0  0  0  0  0  0
   -6.2859   16.7615  -13.3974 O   0  0  0  0  0  0  0  0  0  0  0  0
   -7.1581   18.7109  -12.8936 N   0  0  0  0  0  0  0  0  0  0  0  0
   -7.7253   19.5541  -12.0000 C   0  0  0  0  0  0  0  0  0  0  0  0
   -8.0590   20.6801  -12.3143 O   0  0  0  0  0  0  0  0  0  0  0  0
   -7.9214   19.0470  -10.6239 C   0  0  0  0  0  0  0  0  0  0  0  0
   -8.4615   19.7775   -9.6815 N   0  0  0  0  0  0  0  0  0  0  0  0
  -10.1412   18.9951   -5.6703 H   0  0  0  0  0  0  0  0  0  0  0  0
   -7.2255   15.8009   -8.7675 C   0  0  0  0  0  0  0  0  0  0  0  0
   -8.3782   14.8330   -9.0421 C   0  0  0  0  0  0  0  0  0  0  0  0
   -7.8758   13.6727   -9.7899 N   0  0  0  0  0  0  0  0  0  0  0  0
   -8.4876   13.6008  -11.1236 C   0  0  0  0  0  0  0  0  0  0  0  0
   -7.5905   12.7805  -12.0526 C   0  0  0  0  0  0  0  0  0  0  0  0
   -7.9112   11.3940  -11.9226 O   0  0  0  0  0  0  0  0  0  0  0  0
  -13.4572   17.3542   -9.7331 H   0  0  0  0  0  0  0  0  0  0  0  0
   -6.4101   13.7014   -9.8839 C   0  0  0  0  0  0  0  0  0  0  0  0
   -5.8310   12.4597   -9.2029 C   0  0  0  0  0  0  0  0  0  0  0  0
   -6.8970   11.6462   -8.7093 O   0  0  0  0  0  0  0  0  0  0  0  0
   -4.8828   20.7548   -7.9292 H   0  0  0  0  0  0  0  0  0  0  0  0
  1  2  1  0  0  0
  2  7  2  0  0  0
  2  3  1  0  0  0
  3  4  2  0  0  0
  4 18  1  0  0  0
  4  5  1  0  0  0
  5  6  2  0  0  0
  5  9  1  0  0  0
  6  7  1  0  0  0
  7  8  1  0  0  0
  9 20  1  0  0  0
  9 10  1  0  0  0
 20 21  1  0  0  0
 21 22  1  0  0  0
 22 23  1  0  0  0
 22 27  1  0  0  0
 23 24  1  0  0  0
 24 25  1  0  0  0
 27 28  1  0  0  0
 28 29  1  0  0  0
 10 17  1  0  0  0
 10 11  2  0  0  0
 11 12  1  0  0  0
 12 13  2  0  0  0
 12 14  1  0  0  0
 14 15  1  0  0  0
 15 16  2  0  0  0
 15 17  1  0  0  0
 17 18  2  0  0  0
 25 26  1  0  0  0
 29 30  1  0  0  0
 14 19  1  0  0  0
M  END
> <minimizedAffinity>
-7.94732

$$$$
ZINC000019339220


 35 38  0  0  0  0  0  0  0  0999 V2000
   -8.3835   15.7858   -7.2714 C   0  0  0  0  0  0  0  0  0  0  0  0
   -8.3822   15.3110   -8.4771 N   0  0  0  0  0  0  0  0  0  0  0  0
   -7.1604   14.9688   -9.1936 C   0  0  0  0  0  0  0  0  0  0  0  0
   -6.0246   14.8930   -8.2683 N   0  0  0  0  0  0  0  0  0  0  0  0
   -6.0093   15.8304   -7.2389 C   0  0  0  0  0  0  0  0  0  0  0  0
   -4.9497   16.5257   -6.9379 N   0  0  0  0  0  0  0  0  0  0  0  0
   -7.2146   15.9718   -6.5587 N   0  0  0  0  0  0  0  0  0  0  0  0
   -7.3229   13.6573   -9.9238 C   0  0  0  0  0  0  0  0  0  0  0  0
   -7.5582   12.5780   -9.4243 O   0  0  0  0  0  0  0  0  0  0  0  0
   -7.1577   13.9140  -11.2337 N   0  0  0  0  0  0  0  0  0  0  0  0
   -7.2362   12.9773  -12.1996 C   0  0  0  0  0  0  0  0  0  0  0  0
   -7.5238   11.5431  -11.8368 C   0  0  0  0  0  0  0  0  0  0  0  0
   -7.0754   13.2884  -13.3602 O   0  0  0  0  0  0  0  0  0  0  0  0
   -6.8955   15.2660  -11.4770 C   0  0  0  0  0  0  0  0  0  0  0  0
   -6.6653   15.9488  -12.6686 C   0  0  0  0  0  0  0  0  0  0  0  0
   -6.4246   17.3075  -12.6537 C   0  0  0  0  0  0  0  0  0  0  0  0
   -6.4104   18.0015  -11.4581 C   0  0  0  0  0  0  0  0  0  0  0  0
   -6.6392   17.3299  -10.2697 C   0  0  0  0  0  0  0  0  0  0  0  0
   -6.8797   15.9745  -10.2812 C   0  0  0  0  0  0  0  0  0  0  0  0
   -7.2718   17.7019   -2.7938 H   0  0  0  0  0  0  0  0  0  0  0  0
   -7.2718   17.7019   -2.7938 H   0  0  0  0  0  0  0  0  0  0  0  0
   -7.2718   17.7019   -2.7938 H   0  0  0  0  0  0  0  0  0  0  0  0
   -7.2718   17.7019   -2.7938 H   0  0  0  0  0  0  0  0  0  0  0  0
   -9.5831   16.1195   -6.6861 N   0  0  0  0  0  0  0  0  0  0  0  0
  -11.3770   11.8299   -7.8595 H   0  0  0  0  0  0  0  0  0  0  0  0
   -9.4638   19.7779   -6.2861 C   0  0  0  0  0  0  0  0  0  0  0  0
  -10.1379   19.9337   -5.0843 C   0  0  0  0  0  0  0  0  0  0  0  0
  -10.6268   18.8271   -4.4143 C   0  0  0  0  0  0  0  0  0  0  0  0
  -10.4449   17.5600   -4.9423 C   0  0  0  0  0  0  0  0  0  0  0  0
   -9.7685   17.4004   -6.1498 C   0  0  0  0  0  0  0  0  0  0  0  0
   -9.2834   18.5118   -6.8221 C   0  0  0  0  0  0  0  0  0  0  0  0
   -9.3719   22.1492   -6.4415 C   0  0  0  0  0  0  0  0  0  0  0  0
   -8.9844   20.8681   -6.9423 O   0  0  0  0  0  0  0  0  0  0  0  0
  -10.9266   16.4719   -4.2826 O   0  0  0  0  0  0  0  0  0  0  0  0
  -10.2021   16.0391   -3.1294 C   0  0  0  0  0  0  0  0  0  0  0  0
 32 33  1  0  0  0
 33 26  1  0  0  0
 26 31  2  0  0  0
 26 27  1  0  0  0
 27 28  2  0  0  0
 28 29  1  0  0  0
 29 34  1  0  0  0
 29 30  2  0  0  0
 34 35  1  0  0  0
 30 24  1  0  0  0
 30 31  1  0  0  0
 24  1  1  0  0  0
  1  7  1  0  0  0
  1  2  2  0  0  0
  3  2  1  0  0  0
  3 19  1  0  0  0
  3  4  1  0  0  0
  3  8  1  0  0  0
  4  5  2  0  0  0
  5  6  1  0  0  0
  5  7  1  0  0  0
  8  9  2  0  0  0
  8 10  1  0  0  0
 10 11  1  0  0  0
 10 14  1  0  0  0
 11 12  1  0  0  0
 11 13  2  0  0  0
 14 19  2  0  0  0
 14 15  1  0  0  0
 15 16  2  0  0  0
 16 17  1  0  0  0
 17 18  2  0  0  0
 18 19  1  0  0  0
 24 25  1  0  0  0
  4 20  1  0  0  0
  6 21  1  0  0  0
  6 22  1  0  0  0
  7 23  1  0  0  0
M  CHG 1   4   1
M  END
> <minimizedAffinity>
-8.15581

$$$$
ZINC000020494872


 24 25  0  0  0  0  0  0  0  0999 V2000
   -6.6096   15.7279   -9.0205 C   0  0  0  0  0  0  0  0  0  0  0  0
   -7.6710   16.1999   -8.0604 C   0  0  0  0  0  0  0  0  0  0  0  0
   -7.8304   17.5511   -7.8161 C   0  0  0  0  0  0  0  0  0  0  0  0
   -8.8040   17.9842   -6.9355 C   0  0  0  0  0  0  0  0  0  0  0  0
   -9.6185   17.0660   -6.2994 C   0  0  0  0  0  0  0  0  0  0  0  0
   -9.4600   15.7149   -6.5448 C   0  0  0  0  0  0  0  0  0  0  0  0
   -8.4890   15.2821   -7.4284 C   0  0  0  0  0  0  0  0  0  0  0  0
  -10.6606   17.5296   -5.3561 N   0  0  0  0  0  0  0  0  0  0  0  0
  -10.5312   18.5958   -4.7816 O   0  0  0  0  0  0  0  0  0  0  0  0
  -11.6476   16.8450   -5.1544 O   0  0  0  0  0  0  0  0  0  0  0  0
   -6.9575   15.7556  -11.5469 N   0  0  0  0  0  0  0  0  0  0  0  0
   -7.7353   15.1430  -12.3743 N   0  0  0  0  0  0  0  0  0  0  0  0
   -8.4975   14.3436  -11.7130 N   0  0  0  0  0  0  0  0  0  0  0  0
   -8.2221   14.4304  -10.4574 N   0  0  0  0  0  0  0  0  0  0  0  0
   -7.2555   15.3041  -10.3145 C   0  0  0  0  0  0  0  0  0  0  0  0
   -5.9375   16.7510  -11.8860 C   0  0  0  0  0  0  0  0  0  0  0  0
   -6.5954   18.0882  -12.1096 C   0  0  0  0  0  0  0  0  0  0  0  0
   -6.7277   18.5164  -13.2317 O   0  0  0  0  0  0  0  0  0  0  0  0
   -7.0346   18.8036  -11.0622 O   0  0  0  0  0  0  0  0  0  0  0  0
   -8.5020   20.4320  -10.0011 C   0  0  0  0  0  0  0  0  0  0  0  0
   -8.1294   19.7257  -11.3062 C   0  0  0  0  0  0  0  0  0  0  0  0
   -5.8919   14.5877   -8.4351 N   0  0  0  0  0  0  0  0  0  0  0  0
   -5.1122   13.8757   -9.4565 C   0  0  0  0  0  0  0  0  0  0  0  0
   -5.0335   15.0203   -7.3241 C   0  0  0  0  0  0  0  0  0  0  0  0
 20 21  1  0  0  0
 21 19  1  0  0  0
 19 17  1  0  0  0
 17 18  2  0  0  0
 17 16  1  0  0  0
 16 11  1  0  0  0
 11 15  1  0  0  0
 11 12  1  0  0  0
 12 13  2  0  0  0
 13 14  1  0  0  0
 14 15  2  0  0  0
 15  1  1  0  0  0
  1  2  1  0  0  0
  1 22  1  0  0  0
  2  7  1  0  0  0
  2  3  2  0  0  0
  3  4  1  0  0  0
  4  5  2  0  0  0
  5  8  1  0  0  0
  5  6  1  0  0  0
  8  9  1  0  0  0
  8 10  2  0  0  0
  6  7  2  0  0  0
 22 23  1  0  0  0
 22 24  1  0  0  0
M  CHG 1   8   1
M  CHG 1   9  -1
M  END
> <minimizedAffinity>
-6.58091

$$$$
ZINC000016044070


 26 27  0  0  0  0  0  0  0  0999 V2000
   -8.4713   19.6075   -9.8031 C   0  0  0  0  0  0  0  0  0  0  0  0
   -8.3801   20.7851  -10.0884 O   0  0  0  0  0  0  0  0  0  0  0  0
   -9.6731   17.5007   -6.9366 C   0  0  0  0  0  0  0  0  0  0  0  0
   -9.2416   17.8703   -8.1954 C   0  0  0  0  0  0  0  0  0  0  0  0
   -8.9321   19.2077   -8.4604 C   0  0  0  0  0  0  0  0  0  0  0  0
   -9.0607   20.1648   -7.4505 C   0  0  0  0  0  0  0  0  0  0  0  0
   -9.4921   19.7891   -6.1959 C   0  0  0  0  0  0  0  0  0  0  0  0
   -9.6656   21.0856   -4.8305 Br  0  0  0  0  0  0  0  0  0  0  0  0
   -9.8045   18.4613   -5.9346 C   0  0  0  0  0  0  0  0  0  0  0  0
  -10.2290   18.0960   -4.6974 O   0  0  0  0  0  0  0  0  0  0  0  0
   -9.9762   16.1998   -6.6808 H   0  0  0  0  0  0  0  0  0  0  0  0
   -9.2231   15.2069   -7.3751 C   0  0  0  0  0  0  0  0  0  0  0  0
   -9.9754   16.2006   -6.6759 O   0  0  0  0  0  0  0  0  0  0  0  0
   -8.1515   18.6670  -10.7134 O   0  0  0  0  0  0  0  0  0  0  0  0
   -6.7424   18.3534  -10.8702 C   0  0  0  0  0  0  0  0  0  0  0  0
   -6.4722   16.9723  -10.3313 C   0  0  0  0  0  0  0  0  0  0  0  0
   -6.2114   16.8200   -9.1567 O   0  0  0  0  0  0  0  0  0  0  0  0
   -6.5202   15.9064  -11.1546 N   0  0  0  0  0  0  0  0  0  0  0  0
   -6.8352   16.0903  -12.5735 C   0  0  0  0  0  0  0  0  0  0  0  0
   -6.2575   14.5637  -10.6308 C   0  0  0  0  0  0  0  0  0  0  0  0
   -5.3933   13.7696  -11.6259 C   0  0  0  0  0  0  0  0  0  0  0  0
   -5.4177   12.2813  -11.2240 C   0  0  0  0  0  0  0  0  0  0  0  0
   -7.0214   12.0434  -10.3770 S   0  0  0  0  0  0  0  0  0  0  0  0
   -7.8619   11.2267  -11.1806 O   0  0  0  0  0  0  0  0  0  0  0  0
   -6.7895   11.6989   -9.0179 O   0  0  0  0  0  0  0  0  0  0  0  0
   -7.5886   13.7838  -10.4769 C   0  0  0  0  0  0  0  0  0  0  0  0
 12 13  1  0  0  0
 13  3  1  0  0  0
  3  9  2  0  0  0
  3  4  1  0  0  0
  4  5  2  0  0  0
  5  1  1  0  0  0
  5  6  1  0  0  0
  1  2  2  0  0  0
  1 14  1  0  0  0
 14 15  1  0  0  0
 15 16  1  0  0  0
 16 17  2  0  0  0
 16 18  1  0  0  0
 18 19  1  0  0  0
 18 20  1  0  0  0
 20 26  1  0  0  0
 20 21  1  0  0  0
 21 22  1  0  0  0
 22 23  1  0  0  0
 23 24  2  0  0  0
 23 25  2  0  0  0
 23 26  1  0  0  0
  6  7  2  0  0  0
  7  8  1  0  0  0
  7  9  1  0  0  0
  9 10  1  0  0  0
 10 11  1  0  0  0
M  END
> <minimizedAffinity>
-7.82546

$$$$
ZINC000069594359


 21 22  0  0  0  0  0  0  0  0999 V2000
   -8.2048   18.1288   -7.3373 N   0  0  0  0  0  0  0  0  0  0  0  0
   -8.7769   17.0577   -7.9220 C   0  0  0  0  0  0  0  0  0  0  0  0
   -9.8601   16.6621   -7.5380 O   0  0  0  0  0  0  0  0  0  0  0  0
   -8.4781   20.7484   -4.7537 H   0  0  0  0  0  0  0  0  0  0  0  0
   -8.0865   16.3636   -9.0308 C   0  0  0  0  0  0  0  0  0  0  0  0
   -8.4007   15.0356   -9.3262 C   0  0  0  0  0  0  0  0  0  0  0  0
   -7.7581   14.3891  -10.3586 C   0  0  0  0  0  0  0  0  0  0  0  0
   -6.7920   15.0619  -11.1102 C   0  0  0  0  0  0  0  0  0  0  0  0
   -6.4779   16.3904  -10.8144 C   0  0  0  0  0  0  0  0  0  0  0  0
   -7.1249   17.0383   -9.7855 C   0  0  0  0  0  0  0  0  0  0  0  0
   -6.1241   14.3901  -12.1840 C   0  0  0  0  0  0  0  0  0  0  0  0
   -5.5943   13.8572  -13.0359 N   0  0  0  0  0  0  0  0  0  0  0  0
   -8.8885   18.8162   -6.2391 C   0  0  0  0  0  0  0  0  0  0  0  0
  -10.3952   20.5011   -4.5294 C   0  0  0  0  0  0  0  0  0  0  0  0
  -10.0590   20.9652   -5.8777 N   0  0  0  0  0  0  0  0  0  0  0  0
   -9.3431   20.1761   -6.7030 C   0  0  0  0  0  0  0  0  0  0  0  0
   -9.0647   20.5603   -7.8192 O   0  0  0  0  0  0  0  0  0  0  0  0
  -10.5009   22.2871   -6.3287 C   0  0  0  0  0  0  0  0  0  0  0  0
   -9.7596   23.3690   -5.5408 C   0  0  0  0  0  0  0  0  0  0  0  0
   -8.4479   23.8959   -6.1263 C   0  0  0  0  0  0  0  0  0  0  0  0
   -9.7022   24.7718   -6.1490 C   0  0  0  0  0  0  0  0  0  0  0  0
 14 15  1  0  0  0
 15 18  1  0  0  0
 15 16  1  0  0  0
 18 19  1  0  0  0
 19 21  1  0  0  0
 19 20  1  0  0  0
 20 21  1  0  0  0
 16 17  2  0  0  0
 16 13  1  0  0  0
 13  1  1  0  0  0
  1  2  1  0  0  0
  2  3  2  0  0  0
  2  5  1  0  0  0
  5 10  1  0  0  0
  5  6  2  0  0  0
  6  7  1  0  0  0
  7  8  2  0  0  0
  8 11  1  0  0  0
  8  9  1  0  0  0
 11 12  3  0  0  0
  9 10  2  0  0  0
  1  4  1  0  0  0
M  END
> <minimizedAffinity>
-6.62039

$$$$
ZINC000019445603


 28 30  0  0  0  0  0  0  0  0999 V2000
   -9.3797   19.4151   -7.0351 C   0  0  0  0  0  0  0  0  0  0  0  0
   -8.7030   19.2627   -8.3730 C   0  0  0  0  0  0  0  0  0  0  0  0
   -8.8280   20.2411   -9.3141 C   0  0  0  0  0  0  0  0  0  0  0  0
   -8.1850   20.0753  -10.5578 C   0  0  0  0  0  0  0  0  0  0  0  0
   -8.2745   20.9300  -11.4234 O   0  0  0  0  0  0  0  0  0  0  0  0
   -7.4676   18.9513  -10.7713 N   0  0  0  0  0  0  0  0  0  0  0  0
   -7.3800   18.0092   -9.7910 C   0  0  0  0  0  0  0  0  0  0  0  0
   -7.9793   18.1748   -8.6316 N   0  0  0  0  0  0  0  0  0  0  0  0
  -10.4450   18.3287   -6.8798 H   0  0  0  0  0  0  0  0  0  0  0  0
   -6.5921   16.7805  -10.0326 C   0  0  0  0  0  0  0  0  0  0  0  0
   -6.0872   16.5221  -11.3061 C   0  0  0  0  0  0  0  0  0  0  0  0
   -5.3509   15.3675  -11.5164 C   0  0  0  0  0  0  0  0  0  0  0  0
   -5.1442   14.5104  -10.4464 C   0  0  0  0  0  0  0  0  0  0  0  0
   -5.6754   14.8298   -9.2074 C   0  0  0  0  0  0  0  0  0  0  0  0
   -6.3668   15.9353   -9.0333 N   0  0  0  0  0  0  0  0  0  0  0  0
   -9.0581   20.7287   -6.4719 N   0  0  0  0  0  0  0  0  0  0  0  0
  -10.0488   21.5725   -6.1210 C   0  0  0  0  0  0  0  0  0  0  0  0
  -11.2089   21.2436   -6.2719 O   0  0  0  0  0  0  0  0  0  0  0  0
   -9.6215   18.4197   -5.8993 H   0  0  0  0  0  0  0  0  0  0  0  0
   -9.7235   22.9008   -5.5515 C   0  0  0  0  0  0  0  0  0  0  0  0
   -9.7285   24.0468   -6.3526 C   0  0  0  0  0  0  0  0  0  0  0  0
   -9.4190   25.2654   -5.7801 C   0  0  0  0  0  0  0  0  0  0  0  0
   -9.1222   25.3556   -4.4990 N   0  0  0  0  0  0  0  0  0  0  0  0
   -9.1059   24.3007   -3.7088 C   0  0  0  0  0  0  0  0  0  0  0  0
   -9.4086   23.0442   -4.1968 C   0  0  0  0  0  0  0  0  0  0  0  0
   -8.6148   18.9232   -4.7080 C   0  0  0  0  0  0  0  0  0  0  0  0
   -8.8881   18.3194   -6.0871 C   0  0  0  0  0  0  0  0  0  0  0  0
   -9.9582   17.2327   -5.9651 C   0  0  0  0  0  0  0  0  0  0  0  0
 26 27  1  0  0  0
 27 28  1  0  0  0
 27  1  1  0  0  0
  1 16  1  0  0  0
  1  2  1  0  0  0
 16 17  1  0  0  0
 17 18  2  0  0  0
 17 20  1  0  0  0
 20 25  1  0  0  0
 20 21  2  0  0  0
 21 22  1  0  0  0
 22 23  2  0  0  0
 23 24  1  0  0  0
 24 25  2  0  0  0
  2  8  1  0  0  0
  2  3  2  0  0  0
  3  4  1  0  0  0
  4  5  2  0  0  0
  4  6  1  0  0  0
  6  7  1  0  0  0
  7 10  1  0  0  0
  7  8  2  0  0  0
 10 15  1  0  0  0
 10 11  2  0  0  0
 11 12  1  0  0  0
 12 13  2  0  0  0
 13 14  1  0  0  0
 14 15  2  0  0  0
 16 19  1  0  0  0
  6  9  1  0  0  0
M  END
> <minimizedAffinity>
-8.09966

$$$$
ZINC000069946544


 24 26  0  0  0  0  0  0  0  0999 V2000
   -7.7850   15.2025  -10.6830 N   0  0  0  0  0  0  0  0  0  0  0  0
   -8.2549   14.1719  -11.6165 C   0  0  0  0  0  0  0  0  0  0  0  0
   -7.0988   13.2341  -11.9710 C   0  0  0  0  0  0  0  0  0  0  0  0
   -5.9748   14.0431  -12.6247 C   0  0  0  0  0  0  0  0  0  0  0  0
   -5.5435   15.1617  -11.6720 C   0  0  0  0  0  0  0  0  0  0  0  0
   -6.7567   16.0266  -11.3295 C   0  0  0  0  0  0  0  0  0  0  0  0
   -9.4334   13.8180   -9.1814 H   0  0  0  0  0  0  0  0  0  0  0  0
   -7.2168   14.5591   -9.4909 C   0  0  0  0  0  0  0  0  0  0  0  0
   -9.1131   14.0507   -8.1811 O   0  0  0  0  0  0  0  0  0  0  0  0
   -8.1425   14.7647   -8.3196 C   0  0  0  0  0  0  0  0  0  0  0  0
   -7.8949   15.7454   -7.4290 N   0  0  0  0  0  0  0  0  0  0  0  0
   -9.1094   14.0531   -8.1792 H   0  0  0  0  0  0  0  0  0  0  0  0
   -8.8082   16.0037   -6.4006 C   0  0  0  0  0  0  0  0  0  0  0  0
   -8.6659   15.3902   -5.1587 C   0  0  0  0  0  0  0  0  0  0  0  0
   -9.5951   15.6780   -4.1721 C   0  0  0  0  0  0  0  0  0  0  0  0
  -10.6246   16.5575   -4.4502 C   0  0  0  0  0  0  0  0  0  0  0  0
  -10.7317   17.1220   -5.6373 N   0  0  0  0  0  0  0  0  0  0  0  0
   -9.8666   16.8803   -6.6018 C   0  0  0  0  0  0  0  0  0  0  0  0
   -6.3317   17.1460  -10.3770 C   0  0  0  0  0  0  0  0  0  0  0  0
   -7.2308   18.2915  -10.5378 N   0  0  0  0  0  0  0  0  0  0  0  0
   -7.9828   18.8528   -9.5680 C   0  0  0  0  0  0  0  0  0  0  0  0
   -8.6681   19.8806  -10.1203 C   0  0  0  0  0  0  0  0  0  0  0  0
   -8.3232   19.9497  -11.4741 C   0  0  0  0  0  0  0  0  0  0  0  0
   -7.4570   19.0015  -11.7240 N   0  0  0  0  0  0  0  0  0  0  0  0
  9 10  2  0  0  0
 10  8  1  0  0  0
 10 11  1  0  0  0
  8  1  1  0  0  0
  1  6  1  0  0  0
  1  2  1  0  0  0
  2  3  1  0  0  0
  3  4  1  0  0  0
  4  5  1  0  0  0
  5  6  1  0  0  0
  6 19  1  0  0  0
 19 20  1  0  0  0
 20 24  1  0  0  0
 20 21  1  0  0  0
 21 22  2  0  0  0
 22 23  1  0  0  0
 23 24  2  0  0  0
 11 13  1  0  0  0
 13 18  1  0  0  0
 13 14  2  0  0  0
 14 15  1  0  0  0
 15 16  2  0  0  0
 16 17  1  0  0  0
 17 18  2  0  0  0
  1  7  1  0  0  0
 11 12  1  0  0  0
M  CHG 1   1   1
M  END
> <minimizedAffinity>
-6.78683

$$$$
ZINC000031871303


 35 36  0  0  0  0  0  0  0  0999 V2000
   -6.3429   17.7608  -12.4501 S   0  0  0  0  0  0  0  0  0  0  0  0
   -7.0349   18.5407  -13.4155 O   0  0  0  0  0  0  0  0  0  0  0  0
   -4.9291   17.7750  -12.3082 O   0  0  0  0  0  0  0  0  0  0  0  0
   -8.0462   18.9162   -8.4121 C   0  0  0  0  0  0  0  0  0  0  0  0
   -6.8980   18.1202   -8.4895 C   0  0  0  0  0  0  0  0  0  0  0  0
   -6.3862   17.7732   -9.7217 C   0  0  0  0  0  0  0  0  0  0  0  0
   -7.0051   18.2100  -10.8802 C   0  0  0  0  0  0  0  0  0  0  0  0
   -8.1414   18.9972  -10.8123 C   0  0  0  0  0  0  0  0  0  0  0  0
   -8.6689   19.3487   -9.5880 C   0  0  0  0  0  0  0  0  0  0  0  0
  -11.4336   17.3828   -3.9272 O   0  0  0  0  0  0  0  0  0  0  0  0
  -10.7181   17.5125   -4.9018 C   0  0  0  0  0  0  0  0  0  0  0  0
  -10.4464   16.5348   -5.7797 N   0  0  0  0  0  0  0  0  0  0  0  0
   -9.6253   17.0000   -6.7428 C   0  0  0  0  0  0  0  0  0  0  0  0
   -9.1845   16.3779   -7.6911 O   0  0  0  0  0  0  0  0  0  0  0  0
   -9.3699   18.4132   -6.4154 C   0  0  0  0  0  0  0  0  0  0  0  0
   -8.5986   19.2911   -7.1022 C   0  0  0  0  0  0  0  0  0  0  0  0
  -10.0998   18.6561   -5.2449 N   0  0  0  0  0  0  0  0  0  0  0  0
  -12.1397   17.5110   -4.7294 H   0  0  0  0  0  0  0  0  0  0  0  0
  -12.1397   17.5110   -4.7294 H   0  0  0  0  0  0  0  0  0  0  0  0
   -6.7691   16.1851  -12.7292 N   0  0  0  0  0  0  0  0  0  0  0  0
   -4.1899   22.7274  -20.4481 H   0  0  0  0  0  0  0  0  0  0  0  0
   -5.7770   15.2134  -12.9146 N   0  0  0  0  0  0  0  0  0  0  0  0
   -5.6290   14.2774  -12.0539 C   0  0  0  0  0  0  0  0  0  0  0  0
   -6.4184   14.3022  -10.7705 C   0  0  0  0  0  0  0  0  0  0  0  0
   -5.5272   14.4702   -9.6662 O   0  0  0  0  0  0  0  0  0  0  0  0
  -12.6555   13.1438  -21.0472 H   0  0  0  0  0  0  0  0  0  0  0  0
   -7.1805   12.9847  -10.6149 C   0  0  0  0  0  0  0  0  0  0  0  0
   -7.3191   12.6757   -9.2266 O   0  0  0  0  0  0  0  0  0  0  0  0
   -8.2023   13.1859    1.1217 H   0  0  0  0  0  0  0  0  0  0  0  0
   -6.4079   11.8633  -11.3123 C   0  0  0  0  0  0  0  0  0  0  0  0
   -7.3259   11.0002  -11.9864 O   0  0  0  0  0  0  0  0  0  0  0  0
   -1.4856   22.0401   -5.6752 H   0  0  0  0  0  0  0  0  0  0  0  0
   -5.6236   11.0610  -10.2722 C   0  0  0  0  0  0  0  0  0  0  0  0
   -5.4871    9.7096  -10.7166 O   0  0  0  0  0  0  0  0  0  0  0  0
    3.3554   19.8728  -10.9975 H   0  0  0  0  0  0  0  0  0  0  0  0
 10 11  2  0  0  0
 11 17  1  0  0  0
 11 12  1  0  0  0
 12 13  1  0  0  0
 13 14  2  0  0  0
 13 15  1  0  0  0
 15 16  2  0  0  0
 15 17  1  0  0  0
 16  4  1  0  0  0
  4  9  1  0  0  0
  4  5  2  0  0  0
  5  6  1  0  0  0
  6  7  2  0  0  0
  7  1  1  0  0  0
  7  8  1  0  0  0
  1  2  2  0  0  0
  1  3  2  0  0  0
  1 20  1  0  0  0
 20 22  1  0  0  0
 22 23  2  0  0  0
 23 24  1  0  0  0
 24 25  1  0  0  0
 24 27  1  0  0  0
 27 28  1  0  0  0
 27 30  1  0  0  0
 30 31  1  0  0  0
 30 33  1  0  0  0
 33 34  1  0  0  0
  8  9  2  0  0  0
 12 18  1  0  0  0
 20 21  1  0  0  0
 25 26  1  0  0  0
 28 29  1  0  0  0
 31 32  1  0  0  0
 34 35  1  0  0  0
 17 19  1  0  0  0
M  END
> <minimizedAffinity>
-7.86749

$$$$
ZINC000104046599


 32 35  0  0  0  0  0  0  0  0999 V2000
   -9.4345   17.5464   -6.2573 C   0  0  0  0  0  0  0  0  0  0  0  0
  -10.4062   16.6557   -6.3130 N   0  0  0  0  0  0  0  0  0  0  0  0
  -10.1816   15.7365   -7.3849 O   0  0  0  0  0  0  0  0  0  0  0  0
   -8.7554   15.7541   -7.5593 C   0  0  0  0  0  0  0  0  0  0  0  0
   -8.3087   15.5340   -8.9779 C   0  0  0  0  0  0  0  0  0  0  0  0
   -8.5645   14.5857   -9.6892 O   0  0  0  0  0  0  0  0  0  0  0  0
   -7.5615   16.6160   -9.2938 N   0  0  0  0  0  0  0  0  0  0  0  0
   -7.5836   17.5577   -8.2849 C   0  0  0  0  0  0  0  0  0  0  0  0
   -6.7748   18.6413   -8.2338 O   0  0  0  0  0  0  0  0  0  0  0  0
   -8.5044   17.2624   -7.3487 C   0  0  0  0  0  0  0  0  0  0  0  0
   -8.9577   21.7018   -2.5137 H   0  0  0  0  0  0  0  0  0  0  0  0
   -9.0809   20.6949   -3.4169 C   0  0  0  0  0  0  0  0  0  0  0  0
   -8.8903   19.3763   -3.0219 C   0  0  0  0  0  0  0  0  0  0  0  0
   -9.0039   18.3544   -3.9397 C   0  0  0  0  0  0  0  0  0  0  0  0
   -9.3113   18.6425   -5.2689 C   0  0  0  0  0  0  0  0  0  0  0  0
   -9.5037   19.9711   -5.6661 C   0  0  0  0  0  0  0  0  0  0  0  0
   -9.3924   20.9903   -4.7361 C   0  0  0  0  0  0  0  0  0  0  0  0
   -9.1824   23.0288   -2.9792 C   0  0  0  0  0  0  0  0  0  0  0  0
   -8.9676   21.6971   -2.5074 O   0  0  0  0  0  0  0  0  0  0  0  0
   -9.8034   20.2588   -6.9589 O   0  0  0  0  0  0  0  0  0  0  0  0
   -9.0877   21.3360   -7.5665 C   0  0  0  0  0  0  0  0  0  0  0  0
   -6.8536   16.7630  -10.4956 C   0  0  0  0  0  0  0  0  0  0  0  0
   -7.2986   17.6546  -11.4600 C   0  0  0  0  0  0  0  0  0  0  0  0
   -6.5989   17.7981  -12.6436 C   0  0  0  0  0  0  0  0  0  0  0  0
   -5.4552   17.0549  -12.8690 C   0  0  0  0  0  0  0  0  0  0  0  0
   -5.0054   16.1639  -11.9120 C   0  0  0  0  0  0  0  0  0  0  0  0
   -5.6982   16.0178  -10.7213 C   0  0  0  0  0  0  0  0  0  0  0  0
   -7.0752   18.7503  -13.6720 N   0  0  0  0  0  0  0  0  0  0  0  0
   -7.0660   18.4320  -14.8476 O   0  0  0  0  0  0  0  0  0  0  0  0
   -7.4764   19.8522  -13.3425 O   0  0  0  0  0  0  0  0  0  0  0  0
   -5.2569   15.1423   -9.7792 O   0  0  0  0  0  0  0  0  0  0  0  0
   -5.1375   13.7733  -10.1711 C   0  0  0  0  0  0  0  0  0  0  0  0
 18 19  1  0  0  0
 19 12  1  0  0  0
 12 17  2  0  0  0
 12 13  1  0  0  0
 13 14  2  0  0  0
 14 15  1  0  0  0
 15  1  1  0  0  0
 15 16  2  0  0  0
  1 10  1  0  0  0
  1  2  2  0  0  0
  2  3  1  0  0  0
  3  4  1  0  0  0
  4 10  1  0  0  0
  4  5  1  0  0  0
  5  6  2  0  0  0
  5  7  1  0  0  0
  7 22  1  0  0  0
  7  8  1  0  0  0
 22 27  1  0  0  0
 22 23  2  0  0  0
 23 24  1  0  0  0
 24 28  1  0  0  0
 24 25  2  0  0  0
 28 29  1  0  0  0
 28 30  2  0  0  0
 25 26  1  0  0  0
 26 27  2  0  0  0
 27 31  1  0  0  0
 31 32  1  0  0  0
  8  9  1  0  0  0
  8 10  2  0  0  0
 16 20  1  0  0  0
 16 17  1  0  0  0
 20 21  1  0  0  0
  9 11  1  0  0  0
M  CHG 1  28   1
M  CHG 1  29  -1
M  END
> <minimizedAffinity>
-7.81766

$$$$
ZINC000102751771


 28 30  0  0  0  0  0  0  0  0999 V2000
   -7.2038   16.5889  -10.7492 C   0  0  0  0  0  0  0  0  0  0  0  0
   -7.8484   16.5504   -9.5853 N   0  0  0  0  0  0  0  0  0  0  0  0
   -8.4201   17.6379   -9.0903 C   0  0  0  0  0  0  0  0  0  0  0  0
   -8.3753   18.7989   -9.7257 N   0  0  0  0  0  0  0  0  0  0  0  0
   -7.7483   18.9127  -10.8945 C   0  0  0  0  0  0  0  0  0  0  0  0
   -7.7062   20.1317  -11.5531 N   0  0  0  0  0  0  0  0  0  0  0  0
   -7.1307   17.7931  -11.4435 C   0  0  0  0  0  0  0  0  0  0  0  0
   -4.8703   13.8546  -10.2965 H   0  0  0  0  0  0  0  0  0  0  0  0
   -4.8703   13.8546  -10.2965 H   0  0  0  0  0  0  0  0  0  0  0  0
   -7.6804   11.8830  -11.9424 C   0  0  0  0  0  0  0  0  0  0  0  0
   -6.9953   13.0408  -11.2136 C   0  0  0  0  0  0  0  0  0  0  0  0
   -7.4187   14.3692  -11.8508 C   0  0  0  0  0  0  0  0  0  0  0  0
   -6.6084   15.4462  -11.2604 N   0  0  0  0  0  0  0  0  0  0  0  0
   -5.1473   15.2747  -11.2289 C   0  0  0  0  0  0  0  0  0  0  0  0
   -4.8344   13.9022  -10.6220 C   0  0  0  0  0  0  0  0  0  0  0  0
   -5.2283   13.8954   -9.1436 C   0  0  0  0  0  0  0  0  0  0  0  0
   -5.5767   12.8983  -11.3186 O   0  0  0  0  0  0  0  0  0  0  0  0
   -9.0808   17.5589   -7.8770 N   0  0  0  0  0  0  0  0  0  0  0  0
   -9.7582   16.3193   -7.4728 C   0  0  0  0  0  0  0  0  0  0  0  0
   -9.2459   15.9059   -6.0896 C   0  0  0  0  0  0  0  0  0  0  0  0
   -7.7618   15.5453   -6.1815 C   0  0  0  0  0  0  0  0  0  0  0  0
   -9.4299   17.0698   -5.1131 C   0  0  0  0  0  0  0  0  0  0  0  0
   -8.6133   18.2727   -5.5908 C   0  0  0  0  0  0  0  0  0  0  0  0
   -8.7712   19.4246   -4.5963 C   0  0  0  0  0  0  0  0  0  0  0  0
   -9.1133   18.7110   -6.9658 C   0  0  0  0  0  0  0  0  0  0  0  0
   -6.4229   17.8779  -12.7409 N   0  0  0  0  0  0  0  0  0  0  0  0
   -7.0048   17.5914  -13.7719 O   0  0  0  0  0  0  0  0  0  0  0  0
   -5.2589   18.2343  -12.7773 O   0  0  0  0  0  0  0  0  0  0  0  0
 10 11  1  0  0  0
 11 17  1  0  0  0
 11 12  1  0  0  0
 12 13  1  0  0  0
 13  1  1  0  0  0
 13 14  1  0  0  0
  1  7  1  0  0  0
  1  2  2  0  0  0
  2  3  1  0  0  0
  3 18  1  0  0  0
  3  4  2  0  0  0
 18 25  1  0  0  0
 18 19  1  0  0  0
 19 20  1  0  0  0
 20 21  1  0  0  0
 20 22  1  0  0  0
 22 23  1  0  0  0
 23 24  1  0  0  0
 23 25  1  0  0  0
  4  5  1  0  0  0
  5  6  1  0  0  0
  5  7  2  0  0  0
  7 26  1  0  0  0
 26 27  1  0  0  0
 26 28  2  0  0  0
 14 15  1  0  0  0
 15 16  1  0  0  0
 15 17  1  0  0  0
  6  8  1  0  0  0
  6  9  1  0  0  0
M  CHG 1  26   1
M  CHG 1  27  -1
M  END
> <minimizedAffinity>
-7.55736

$$$$
ZINC000013638265


 34 38  0  0  0  0  0  0  0  0999 V2000
   -8.5407   14.5163  -10.7642 C   0  0  0  0  0  0  0  0  0  0  0  0
   -9.5706   14.4646   -9.7075 N   0  0  0  0  0  0  0  0  0  0  0  0
   -9.2438   14.9433   -8.4626 C   0  0  0  0  0  0  0  0  0  0  0  0
   -9.5139   14.3044   -7.3631 N   0  0  0  0  0  0  0  0  0  0  0  0
   -8.9398   14.8181   -6.1139 C   0  0  0  0  0  0  0  0  0  0  0  0
   -9.1140   16.2620   -6.0038 N   0  0  0  0  0  0  0  0  0  0  0  0
   -8.7603   17.0130   -7.2050 C   0  0  0  0  0  0  0  0  0  0  0  0
   -8.5901   16.1623   -8.3662 N   0  0  0  0  0  0  0  0  0  0  0  0
   -7.7964   16.5165   -9.4455 C   0  0  0  0  0  0  0  0  0  0  0  0
   -6.9984   17.5409   -9.5719 N   0  0  0  0  0  0  0  0  0  0  0  0
   -6.4296   17.5183  -10.7939 C   0  0  0  0  0  0  0  0  0  0  0  0
   -5.5195   18.3800  -11.4154 C   0  0  0  0  0  0  0  0  0  0  0  0
   -5.1331   18.0600  -12.7047 C   0  0  0  0  0  0  0  0  0  0  0  0
   -5.6174   16.9416  -13.3599 C   0  0  0  0  0  0  0  0  0  0  0  0
   -6.5199   16.0746  -12.7642 C   0  0  0  0  0  0  0  0  0  0  0  0
   -6.9233   16.3731  -11.4686 C   0  0  0  0  0  0  0  0  0  0  0  0
   -7.7727   15.7555  -10.5970 N   0  0  0  0  0  0  0  0  0  0  0  0
   -5.0842   10.0461  -10.2839 H   0  0  0  0  0  0  0  0  0  0  0  0
   -5.9357   11.1469  -10.4058 C   0  0  0  0  0  0  0  0  0  0  0  0
   -5.9508   12.1233   -9.4179 C   0  0  0  0  0  0  0  0  0  0  0  0
   -6.7936   13.2109   -9.5369 C   0  0  0  0  0  0  0  0  0  0  0  0
   -7.6223   13.3281  -10.6377 C   0  0  0  0  0  0  0  0  0  0  0  0
   -7.6098   12.3580  -11.6231 C   0  0  0  0  0  0  0  0  0  0  0  0
   -6.7652   11.2708  -11.5131 C   0  0  0  0  0  0  0  0  0  0  0  0
   -4.8237    9.4581   -8.9724 C   0  0  0  0  0  0  0  0  0  0  0  0
   -5.0841   10.0460  -10.2888 N   0  0  0  0  0  0  0  0  0  0  0  0
   -4.4515    9.4791  -11.4824 C   0  0  0  0  0  0  0  0  0  0  0  0
   -8.4100   16.7890   -4.8271 C   0  0  0  0  0  0  0  0  0  0  0  0
   -9.3375   17.7318   -4.0577 C   0  0  0  0  0  0  0  0  0  0  0  0
   -8.8556   19.1737   -4.2294 C   0  0  0  0  0  0  0  0  0  0  0  0
   -9.8897   19.9568   -4.9188 N   0  0  0  0  0  0  0  0  0  0  0  0
  -10.3341   21.0541   -4.0491 C   0  0  0  0  0  0  0  0  0  0  0  0
   -9.3371   20.5105   -6.1622 C   0  0  0  0  0  0  0  0  0  0  0  0
  -10.1459    8.4602   -2.5253 H   0  0  0  0  0  0  0  0  0  0  0  0
 25 26  1  0  0  0
 26 27  1  0  0  0
 26 19  1  0  0  0
 19 24  2  0  0  0
 19 20  1  0  0  0
 20 21  2  0  0  0
 21 22  1  0  0  0
 22  1  1  0  0  0
 22 23  2  0  0  0
  1 17  1  0  0  0
  1  2  1  0  0  0
  2  3  1  0  0  0
  3  8  1  0  0  0
  3  4  2  0  0  0
  4  5  1  0  0  0
  5  6  1  0  0  0
  6 28  1  0  0  0
  6  7  1  0  0  0
 28 29  1  0  0  0
 29 30  1  0  0  0
 30 31  1  0  0  0
 31 32  1  0  0  0
 31 33  1  0  0  0
  7  8  1  0  0  0
  8  9  1  0  0  0
  9 17  1  0  0  0
  9 10  2  0  0  0
 10 11  1  0  0  0
 11 16  2  0  0  0
 11 12  1  0  0  0
 12 13  2  0  0  0
 13 14  1  0  0  0
 14 15  2  0  0  0
 15 16  1  0  0  0
 16 17  1  0  0  0
 23 24  1  0  0  0
  2 18  1  0  0  0
 31 34  1  0  0  0
M  CHG 1  31   1
M  END
> <minimizedAffinity>
-6.33683

$$$$
ZINC000226097760


 23 24  0  0  0  0  0  0  0  0999 V2000
   -6.3399   15.7047  -12.4496 N   0  0  0  0  0  0  0  0  0  0  0  0
   -8.7167   14.1455  -12.0689 H   0  0  0  0  0  0  0  0  0  0  0  0
   -8.7167   14.1455  -12.0689 H   0  0  0  0  0  0  0  0  0  0  0  0
   -7.0240   13.4675  -11.7257 C   0  0  0  0  0  0  0  0  0  0  0  0
   -6.0901   12.8759  -12.6312 O   0  0  0  0  0  0  0  0  0  0  0  0
   -7.1947   12.5613  -10.5049 C   0  0  0  0  0  0  0  0  0  0  0  0
   -5.8451   12.3889   -9.8051 C   0  0  0  0  0  0  0  0  0  0  0  0
   -5.3248   13.7561   -9.3566 C   0  0  0  0  0  0  0  0  0  0  0  0
   -5.1541   14.6622  -10.5776 C   0  0  0  0  0  0  0  0  0  0  0  0
   -6.5037   14.8346  -11.2774 C   0  0  0  0  0  0  0  0  0  0  0  0
   -8.3200   13.6307  -12.3956 H   0  0  0  0  0  0  0  0  0  0  0  0
   -9.3581   13.7656  -12.9359 C   0  0  0  0  0  0  0  0  0  0  0  0
   -8.3225   13.6334  -12.3990 C   0  0  0  0  0  0  0  0  0  0  0  0
   -5.5776   16.9012  -12.0686 C   0  0  0  0  0  0  0  0  0  0  0  0
   -6.3778   18.1533  -12.4330 C   0  0  0  0  0  0  0  0  0  0  0  0
   -7.1533   18.6221  -11.2288 C   0  0  0  0  0  0  0  0  0  0  0  0
   -8.1137   19.6071  -11.3671 C   0  0  0  0  0  0  0  0  0  0  0  0
   -8.8259   20.0385  -10.2648 C   0  0  0  0  0  0  0  0  0  0  0  0
   -8.5772   19.4822   -9.0185 C   0  0  0  0  0  0  0  0  0  0  0  0
   -7.6133   18.4937   -8.8826 C   0  0  0  0  0  0  0  0  0  0  0  0
   -6.9072   18.0624   -9.9888 C   0  0  0  0  0  0  0  0  0  0  0  0
   -9.2768   19.9046   -7.9327 O   0  0  0  0  0  0  0  0  0  0  0  0
   -9.0081   19.2481   -6.6922 C   0  0  0  0  0  0  0  0  0  0  0  0
 12 13  3  0  0  0
  4 13  1  0  0  0
  4 10  1  0  0  0
  4  5  1  0  0  0
  4  6  1  0  0  0
  6  7  1  0  0  0
  7  8  1  0  0  0
  8  9  1  0  0  0
  9 10  1  0  0  0
 10  1  1  0  0  0
  1 14  1  0  0  0
 14 15  1  0  0  0
 15 16  1  0  0  0
 16 21  1  0  0  0
 16 17  2  0  0  0
 17 18  1  0  0  0
 18 19  2  0  0  0
 19 22  1  0  0  0
 19 20  1  0  0  0
 22 23  1  0  0  0
 20 21  2  0  0  0
  5 11  1  0  0  0
  1  2  1  0  0  0
  1  3  1  0  0  0
M  CHG 1   1   1
M  END
> <minimizedAffinity>
-7.51549

$$$$
ZINC000004271614


 28 30  0  0  0  0  0  0  0  0999 V2000
   -8.3279   15.3479   -7.4329 S   0  0  0  0  0  0  0  0  0  0  0  0
   -9.3647   14.3844   -7.3063 O   0  0  0  0  0  0  0  0  0  0  0  0
   -7.1222   15.2955   -6.6827 O   0  0  0  0  0  0  0  0  0  0  0  0
   -8.9336   13.8058  -12.3435 C   0  0  0  0  0  0  0  0  0  0  0  0
   -8.1934   14.6034  -11.3627 N   0  0  0  0  0  0  0  0  0  0  0  0
   -8.5687   14.5873  -10.0686 C   0  0  0  0  0  0  0  0  0  0  0  0
   -9.5197   13.9117   -9.7142 O   0  0  0  0  0  0  0  0  0  0  0  0
   -7.8576   15.3525   -9.1309 C   0  0  0  0  0  0  0  0  0  0  0  0
   -6.7946   16.1011   -9.5539 C   0  0  0  0  0  0  0  0  0  0  0  0
   -6.0819   16.8578   -8.6595 N   0  0  0  0  0  0  0  0  0  0  0  0
   -6.4467   16.0882  -10.8828 N   0  0  0  0  0  0  0  0  0  0  0  0
   -5.3093   16.8870  -11.3458 C   0  0  0  0  0  0  0  0  0  0  0  0
   -7.1413   15.3417  -11.7609 C   0  0  0  0  0  0  0  0  0  0  0  0
   -6.8196   15.3420  -12.9334 O   0  0  0  0  0  0  0  0  0  0  0  0
   -8.0151   14.9541  -11.6858 H   0  0  0  0  0  0  0  0  0  0  0  0
   -8.0151   14.9541  -11.6858 H   0  0  0  0  0  0  0  0  0  0  0  0
   -9.0154   16.8196   -7.1107 N   0  0  0  0  0  0  0  0  0  0  0  0
   -9.2887   17.2305   -5.7264 C   0  0  0  0  0  0  0  0  0  0  0  0
   -8.6026   18.5782   -5.4708 C   0  0  0  0  0  0  0  0  0  0  0  0
   -8.9500   19.4969   -6.5640 N   0  0  0  0  0  0  0  0  0  0  0  0
   -8.6768   19.0859   -7.9483 C   0  0  0  0  0  0  0  0  0  0  0  0
   -9.3578   17.7407   -8.2036 C   0  0  0  0  0  0  0  0  0  0  0  0
   -9.5291   20.7385   -6.2921 C   0  0  0  0  0  0  0  0  0  0  0  0
  -10.5038   20.8517   -5.3089 C   0  0  0  0  0  0  0  0  0  0  0  0
  -11.0740   22.0810   -5.0423 C   0  0  0  0  0  0  0  0  0  0  0  0
  -10.6759   23.1983   -5.7531 C   0  0  0  0  0  0  0  0  0  0  0  0
   -9.7058   23.0892   -6.7325 C   0  0  0  0  0  0  0  0  0  0  0  0
   -9.1274   21.8640   -7.0003 C   0  0  0  0  0  0  0  0  0  0  0  0
  4  5  1  0  0  0
  5 13  1  0  0  0
  5  6  1  0  0  0
  6  7  2  0  0  0
  6  8  1  0  0  0
  8  1  1  0  0  0
  8  9  2  0  0  0
  1  2  2  0  0  0
  1  3  2  0  0  0
  1 17  1  0  0  0
 17 22  1  0  0  0
 17 18  1  0  0  0
 18 19  1  0  0  0
 19 20  1  0  0  0
 20 23  1  0  0  0
 20 21  1  0  0  0
 23 28  1  0  0  0
 23 24  2  0  0  0
 24 25  1  0  0  0
 25 26  2  0  0  0
 26 27  1  0  0  0
 27 28  2  0  0  0
 21 22  1  0  0  0
  9 10  1  0  0  0
  9 11  1  0  0  0
 11 12  1  0  0  0
 11 13  1  0  0  0
 13 14  2  0  0  0
 10 15  1  0  0  0
 10 16  1  0  0  0
M  END
> <minimizedAffinity>
-8.14266

$$$$
ZINC000257317119


 28 31  0  0  0  0  0  0  0  0999 V2000
   -8.4164   20.1057   -9.9237 C   0  0  0  0  0  0  0  0  0  0  0  0
   -8.0333   18.9940   -8.9811 C   0  0  0  0  0  0  0  0  0  0  0  0
   -7.0983   18.1333   -9.3353 N   0  0  0  0  0  0  0  0  0  0  0  0
   -6.7298   17.1415   -8.5389 C   0  0  0  0  0  0  0  0  0  0  0  0
   -7.3236   16.9770   -7.2922 C   0  0  0  0  0  0  0  0  0  0  0  0
   -8.3074   17.8642   -6.8929 C   0  0  0  0  0  0  0  0  0  0  0  0
   -8.6613   18.8929   -7.7554 C   0  0  0  0  0  0  0  0  0  0  0  0
   -5.7389   16.2563   -8.9531 N   0  0  0  0  0  0  0  0  0  0  0  0
   -7.6257   19.0214   -8.2918 H   0  0  0  0  0  0  0  0  0  0  0  0
   -6.0802   14.9868   -9.3779 C   0  0  0  0  0  0  0  0  0  0  0  0
   -5.8733   13.8969   -8.6979 N   0  0  0  0  0  0  0  0  0  0  0  0
   -6.2570   12.7684   -9.2420 C   0  0  0  0  0  0  0  0  0  0  0  0
   -6.8313   12.9118  -10.4737 C   0  0  0  0  0  0  0  0  0  0  0  0
   -6.8398   14.6293  -10.8666 S   0  0  0  0  0  0  0  0  0  0  0  0
   -7.3403   11.8555  -11.2958 C   0  0  0  0  0  0  0  0  0  0  0  0
   -7.7441   11.0175  -11.9479 N   0  0  0  0  0  0  0  0  0  0  0  0
   -9.7277   19.8827   -7.3626 C   0  0  0  0  0  0  0  0  0  0  0  0
   -9.3397   20.5533   -6.0432 C   0  0  0  0  0  0  0  0  0  0  0  0
  -10.0954   19.8655   -4.8862 C   0  0  0  0  0  0  0  0  0  0  0  0
   -9.4634   20.1867   -3.6754 O   0  0  0  0  0  0  0  0  0  0  0  0
   -9.9672   21.3288   -2.9526 C   0  0  0  0  0  0  0  0  0  0  0  0
  -10.2895   22.5212   -3.8697 C   0  0  0  0  0  0  0  0  0  0  0  0
   -9.2851   22.7099   -4.8892 N   0  0  0  0  0  0  0  0  0  0  0  0
   -9.6618   21.9813   -6.1188 C   0  0  0  0  0  0  0  0  0  0  0  0
   -9.0771   24.1376   -5.1654 C   0  0  0  0  0  0  0  0  0  0  0  0
  -10.0287   24.7096   -6.2332 C   0  0  0  0  0  0  0  0  0  0  0  0
  -10.1607   25.8396   -5.3476 O   0  0  0  0  0  0  0  0  0  0  0  0
   -9.8018   25.0737   -4.1800 C   0  0  0  0  0  0  0  0  0  0  0  0
  1  2  1  0  0  0
  2  7  2  0  0  0
  2  3  1  0  0  0
  3  4  2  0  0  0
  4  8  1  0  0  0
  4  5  1  0  0  0
  8 10  1  0  0  0
 10 14  1  0  0  0
 10 11  2  0  0  0
 11 12  1  0  0  0
 12 13  2  0  0  0
 13 15  1  0  0  0
 13 14  1  0  0  0
 15 16  3  0  0  0
  5  6  2  0  0  0
  6  7  1  0  0  0
  7 17  1  0  0  0
 17 18  1  0  0  0
 18 24  1  0  0  0
 18 19  1  0  0  0
 19 20  1  0  0  0
 20 21  1  0  0  0
 21 22  1  0  0  0
 22 23  1  0  0  0
 23 25  1  0  0  0
 23 24  1  0  0  0
 25 28  1  0  0  0
 25 26  1  0  0  0
 26 27  1  0  0  0
 27 28  1  0  0  0
  8  9  1  0  0  0
M  END
> <minimizedAffinity>
-7.32501

$$$$
ZINC000019208658


 32 35  0  0  0  0  0  0  0  0999 V2000
   -7.6252   14.3814   -9.3149 N   0  0  0  0  0  0  0  0  0  0  0  0
   -7.8220   14.7167   -8.0244 C   0  0  0  0  0  0  0  0  0  0  0  0
   -7.0176   14.3810   -7.1812 O   0  0  0  0  0  0  0  0  0  0  0  0
   -4.9592   16.1191  -12.9489 H   0  0  0  0  0  0  0  0  0  0  0  0
   -6.4395   13.6114   -9.6990 C   0  0  0  0  0  0  0  0  0  0  0  0
   -6.3574   13.5285  -11.2246 C   0  0  0  0  0  0  0  0  0  0  0  0
   -7.6309   12.8778  -11.7735 C   0  0  0  0  0  0  0  0  0  0  0  0
   -7.7286   11.4431  -11.2483 C   0  0  0  0  0  0  0  0  0  0  0  0
   -6.5594   10.7163  -11.6314 O   0  0  0  0  0  0  0  0  0  0  0  0
   -5.3421   11.2514  -11.1077 C   0  0  0  0  0  0  0  0  0  0  0  0
   -5.1486   12.6784  -11.6273 C   0  0  0  0  0  0  0  0  0  0  0  0
   -5.8013   18.8433  -13.4239 C   0  0  0  0  0  0  0  0  0  0  0  0
   -5.9463   17.4573  -12.8504 C   0  0  0  0  0  0  0  0  0  0  0  0
   -4.8911   16.8758  -12.1726 C   0  0  0  0  0  0  0  0  0  0  0  0
   -5.0242   15.6044  -11.6465 C   0  0  0  0  0  0  0  0  0  0  0  0
   -6.2125   14.9148  -11.7977 C   0  0  0  0  0  0  0  0  0  0  0  0
   -7.2682   15.4967  -12.4742 C   0  0  0  0  0  0  0  0  0  0  0  0
   -7.1365   16.7696  -12.9970 C   0  0  0  0  0  0  0  0  0  0  0  0
   -9.0416   15.5088   -7.6293 C   0  0  0  0  0  0  0  0  0  0  0  0
   -8.6085   16.7811   -6.8980 C   0  0  0  0  0  0  0  0  0  0  0  0
   -9.0522   16.7079   -5.4644 C   0  0  0  0  0  0  0  0  0  0  0  0
   -8.9153   15.6616   -4.8665 O   0  0  0  0  0  0  0  0  0  0  0  0
   -9.5912   17.7482   -4.8200 N   0  0  0  0  0  0  0  0  0  0  0  0
   -9.8315   19.0392   -5.4582 C   0  0  0  0  0  0  0  0  0  0  0  0
   -8.9986   19.1554   -6.7361 C   0  0  0  0  0  0  0  0  0  0  0  0
   -9.2156   17.9490   -7.5503 N   0  0  0  0  0  0  0  0  0  0  0  0
  -13.2714   10.2768   -7.3635 H   0  0  0  0  0  0  0  0  0  0  0  0
   -8.6822   18.1268   -8.9075 C   0  0  0  0  0  0  0  0  0  0  0  0
   -9.1091   19.5004   -9.4820 C   0  0  0  0  0  0  0  0  0  0  0  0
   -8.0274   19.7724  -10.5567 C   0  0  0  0  0  0  0  0  0  0  0  0
   -6.7249   19.2378   -9.9264 C   0  0  0  0  0  0  0  0  0  0  0  0
   -7.1412   18.1916   -8.8776 C   0  0  0  0  0  0  0  0  0  0  0  0
 12 13  1  0  0  0
 13 18  2  0  0  0
 13 14  1  0  0  0
 14 15  2  0  0  0
 15 16  1  0  0  0
 16  6  1  0  0  0
 16 17  2  0  0  0
  6 11  1  0  0  0
  6  5  1  0  0  0
  6  7  1  0  0  0
  5  1  1  0  0  0
  1  2  1  0  0  0
  2  3  2  0  0  0
  2 19  1  0  0  0
 19 20  1  0  0  0
 20 26  1  0  0  0
 20 21  1  0  0  0
 21 22  2  0  0  0
 21 23  1  0  0  0
 23 24  1  0  0  0
 24 25  1  0  0  0
 25 26  1  0  0  0
 26 28  1  0  0  0
 28 32  1  0  0  0
 28 29  1  0  0  0
 29 30  1  0  0  0
 30 31  1  0  0  0
 31 32  1  0  0  0
  7  8  1  0  0  0
  8  9  1  0  0  0
  9 10  1  0  0  0
 10 11  1  0  0  0
 17 18  1  0  0  0
  1  4  1  0  0  0
 23 27  1  0  0  0
M  END
> <minimizedAffinity>
-8.56751

$$$$
ZINC000329004809


 32 34  0  0  0  0  0  0  0  0999 V2000
   -6.5207   16.9012   -7.9566 C   0  0  0  0  0  0  0  0  0  0  0  0
   -6.4602   17.2840   -9.2221 N   0  0  0  0  0  0  0  0  0  0  0  0
   -7.3646   18.1248   -9.7250 C   0  0  0  0  0  0  0  0  0  0  0  0
   -8.3803   18.5992   -8.8993 C   0  0  0  0  0  0  0  0  0  0  0  0
   -8.4094   18.1721   -7.5720 C   0  0  0  0  0  0  0  0  0  0  0  0
   -7.4758   17.3278   -7.1435 N   0  0  0  0  0  0  0  0  0  0  0  0
   -7.2897   18.5485  -11.1446 C   0  0  0  0  0  0  0  0  0  0  0  0
   -6.4916   17.8485  -12.0536 C   0  0  0  0  0  0  0  0  0  0  0  0
   -6.4560   18.2842  -13.3673 C   0  0  0  0  0  0  0  0  0  0  0  0
   -7.2041   19.3875  -13.7346 C   0  0  0  0  0  0  0  0  0  0  0  0
   -7.9485   20.0283  -12.8538 N   0  0  0  0  0  0  0  0  0  0  0  0
   -8.0187   19.6477  -11.5949 C   0  0  0  0  0  0  0  0  0  0  0  0
   -5.5636   16.0272   -7.4711 N   0  0  0  0  0  0  0  0  0  0  0  0
   -4.8109   12.3982   -7.0079 H   0  0  0  0  0  0  0  0  0  0  0  0
   -5.7903   14.5814   -7.5389 C   0  0  0  0  0  0  0  0  0  0  0  0
   -5.3004   14.0511   -8.8878 C   0  0  0  0  0  0  0  0  0  0  0  0
   -6.6437   14.0932  -10.8749 C   0  0  0  0  0  0  0  0  0  0  0  0
   -6.4158   13.4083   -9.5954 N   0  0  0  0  0  0  0  0  0  0  0  0
   -6.0890   11.9982   -9.8462 C   0  0  0  0  0  0  0  0  0  0  0  0
   -6.4162   13.4127   -9.5977 H   0  0  0  0  0  0  0  0  0  0  0  0
   -9.4014   18.6170   -6.7128 N   0  0  0  0  0  0  0  0  0  0  0  0
   -9.2094   11.8932   -8.6487 H   0  0  0  0  0  0  0  0  0  0  0  0
   -9.4440   20.0248   -6.3096 C   0  0  0  0  0  0  0  0  0  0  0  0
   -9.4736   20.1159   -4.8057 C   0  0  0  0  0  0  0  0  0  0  0  0
   -8.6789   19.2777   -4.0467 C   0  0  0  0  0  0  0  0  0  0  0  0
   -8.7061   19.3614   -2.6669 C   0  0  0  0  0  0  0  0  0  0  0  0
   -9.5277   20.2834   -2.0466 C   0  0  0  0  0  0  0  0  0  0  0  0
  -10.3221   21.1224   -2.8058 C   0  0  0  0  0  0  0  0  0  0  0  0
  -10.2917   21.0418   -4.1852 C   0  0  0  0  0  0  0  0  0  0  0  0
  -11.1422   21.9401   -4.9980 N   0  0  0  0  0  0  0  0  0  0  0  0
  -10.6662   22.9457   -5.4939 O   0  0  0  0  0  0  0  0  0  0  0  0
  -12.3181   21.6738   -5.1710 O   0  0  0  0  0  0  0  0  0  0  0  0
 17 18  1  0  0  0
 18 19  1  0  0  0
 18 16  1  0  0  0
 16 15  1  0  0  0
 15 13  1  0  0  0
 13  1  1  0  0  0
  1  6  2  0  0  0
  1  2  1  0  0  0
  2  3  2  0  0  0
  3  7  1  0  0  0
  3  4  1  0  0  0
  7 12  1  0  0  0
  7  8  2  0  0  0
  8  9  1  0  0  0
  9 10  2  0  0  0
 10 11  1  0  0  0
 11 12  2  0  0  0
  4  5  2  0  0  0
  5 21  1  0  0  0
  5  6  1  0  0  0
 21 23  1  0  0  0
 23 24  1  0  0  0
 24 29  1  0  0  0
 24 25  2  0  0  0
 25 26  1  0  0  0
 26 27  2  0  0  0
 27 28  1  0  0  0
 28 29  2  0  0  0
 29 30  1  0  0  0
 30 31  1  0  0  0
 30 32  2  0  0  0
 18 20  1  0  0  0
 13 14  1  0  0  0
 21 22  1  0  0  0
M  CHG 1  18   1
M  CHG 1  30   1
M  CHG 1  31  -1
M  END
> <minimizedAffinity>
-8.17121

$$$$
ZINC000015022450


 23 24  0  0  0  0  0  0  0  0999 V2000
   -6.6120   15.0154  -12.1869 N   0  0  0  0  0  0  0  0  0  0  0  0
   -6.5398   13.5826  -12.3880 C   0  0  0  0  0  0  0  0  0  0  0  0
   -6.5876   12.7294  -11.1376 C   0  0  0  0  0  0  0  0  0  0  0  0
   -5.2637   12.7138  -10.3853 C   0  0  0  0  0  0  0  0  0  0  0  0
   -5.1239   13.8931   -9.4729 C   0  0  0  0  0  0  0  0  0  0  0  0
   -6.0657   14.7619   -9.2421 C   0  0  0  0  0  0  0  0  0  0  0  0
   -7.4378   14.6572   -9.8533 C   0  0  0  0  0  0  0  0  0  0  0  0
   -7.4924   15.4882  -11.1338 C   0  0  0  0  0  0  0  0  0  0  0  0
   -7.7114   13.1895  -10.2061 C   0  0  0  0  0  0  0  0  0  0  0  0
   -5.2713   15.6160  -12.0880 H   0  0  0  0  0  0  0  0  0  0  0  0
   -6.8846   11.3455  -11.5447 N   0  0  0  0  0  0  0  0  0  0  0  0
   -5.9761   10.5871  -11.8329 O   0  0  0  0  0  0  0  0  0  0  0  0
   -8.0387   10.9594  -11.5932 O   0  0  0  0  0  0  0  0  0  0  0  0
   -8.4472   15.1337   -8.8923 N   0  0  0  0  0  0  0  0  0  0  0  0
   -8.6875   16.3243   -8.8017 O   0  0  0  0  0  0  0  0  0  0  0  0
   -9.0414   14.3372   -8.1881 O   0  0  0  0  0  0  0  0  0  0  0  0
   -5.3725   17.1239  -12.2977 C   0  0  0  0  0  0  0  0  0  0  0  0
   -5.2738   15.6116  -12.0878 C   0  0  0  0  0  0  0  0  0  0  0  0
   -5.8032   15.7952   -8.4036 O   0  0  0  0  0  0  0  0  0  0  0  0
   -5.2031   15.4746   -7.1470 C   0  0  0  0  0  0  0  0  0  0  0  0
   -6.2503   14.8413   -6.2286 C   0  0  0  0  0  0  0  0  0  0  0  0
   -5.7782   13.5722   -5.7719 O   0  0  0  0  0  0  0  0  0  0  0  0
   -5.6127   17.0122  -11.1775 H   0  0  0  0  0  0  0  0  0  0  0  0
 17 18  1  0  0  0
 18  1  1  0  0  0
  1  8  1  0  0  0
  1  2  1  0  0  0
  2  3  1  0  0  0
  3  9  1  0  0  0
  3 11  1  0  0  0
  3  4  1  0  0  0
 11 12  1  0  0  0
 11 13  2  0  0  0
  4  5  1  0  0  0
  5  6  2  0  0  0
  6 19  1  0  0  0
  6  7  1  0  0  0
 19 20  1  0  0  0
 20 21  1  0  0  0
 21 22  1  0  0  0
  7 14  1  0  0  0
  7  8  1  0  0  0
  7  9  1  0  0  0
 14 15  1  0  0  0
 14 16  2  0  0  0
  1 10  1  0  0  0
 22 23  1  0  0  0
M  CHG 1   1   1
M  CHG 1  11   1
M  CHG 1  12  -1
M  CHG 1  14   1
M  CHG 1  15  -1
M  END
> <minimizedAffinity>
-6.78149

$$$$
ZINC000079350297


 20 22  0  0  0  0  0  0  0  0999 V2000
   -6.5992   16.9697  -12.6430 C   0  0  0  0  0  0  0  0  0  0  0  0
   -6.8785   12.7852  -11.8307 C   0  0  0  0  0  0  0  0  0  0  0  0
   -5.6408   13.3988  -11.8793 C   0  0  0  0  0  0  0  0  0  0  0  0
   -5.5504   14.7529  -12.1421 C   0  0  0  0  0  0  0  0  0  0  0  0
   -6.6977   15.4934  -12.3569 C   0  0  0  0  0  0  0  0  0  0  0  0
   -7.9355   14.8796  -12.3097 C   0  0  0  0  0  0  0  0  0  0  0  0
   -8.0256   13.5247  -12.0505 C   0  0  0  0  0  0  0  0  0  0  0  0
   -8.0117   10.8674  -11.1128 O   0  0  0  0  0  0  0  0  0  0  0  0
   -6.9753   11.3352  -11.5493 N   0  0  0  0  0  0  0  0  0  0  0  0
   -6.0201   10.6091  -11.7589 O   0  0  0  0  0  0  0  0  0  0  0  0
   -6.2026   17.7115  -11.3650 C   0  0  0  0  0  0  0  0  0  0  0  0
   -7.4122   18.1774  -10.6738 N   0  0  0  0  0  0  0  0  0  0  0  0
   -7.3339   19.6159  -10.3877 C   0  0  0  0  0  0  0  0  0  0  0  0
   -8.6574   20.0467   -9.7437 C   0  0  0  0  0  0  0  0  0  0  0  0
   -8.8290   19.3107   -8.5340 O   0  0  0  0  0  0  0  0  0  0  0  0
   -8.8858   17.8903   -8.6846 C   0  0  0  0  0  0  0  0  0  0  0  0
   -8.6688   17.2786   -7.2774 C   0  0  0  0  0  0  0  0  0  0  0  0
   -7.1557   17.0304   -7.1390 C   0  0  0  0  0  0  0  0  0  0  0  0
   -6.5121   17.4724   -8.4722 C   0  0  0  0  0  0  0  0  0  0  0  0
   -7.6708   17.3836   -9.4851 C   0  0  0  0  0  0  0  0  0  0  0  0
  8  9  1  0  0  0
  9 10  2  0  0  0
  9  2  1  0  0  0
  2  7  2  0  0  0
  2  3  1  0  0  0
  3  4  2  0  0  0
  4  5  1  0  0  0
  5  1  1  0  0  0
  5  6  2  0  0  0
  1 11  1  0  0  0
 11 12  1  0  0  0
 12 20  1  0  0  0
 12 13  1  0  0  0
 13 14  1  0  0  0
 14 15  1  0  0  0
 15 16  1  0  0  0
 16 20  1  0  0  0
 16 17  1  0  0  0
 17 18  1  0  0  0
 18 19  1  0  0  0
 19 20  1  0  0  0
  6  7  1  0  0  0
M  CHG 1   8  -1
M  CHG 1   9   1
M  END
> <minimizedAffinity>
-7.47174

$$$$
ZINC000252629131


 25 26  0  0  0  0  0  0  0  0999 V2000
   -6.1701   17.3725  -10.7832 N   0  0  0  0  0  0  0  0  0  0  0  0
   -6.2514   16.0972  -11.0992 C   0  0  0  0  0  0  0  0  0  0  0  0
   -5.7747   15.5144  -12.2416 N   0  0  0  0  0  0  0  0  0  0  0  0
   -5.9207   14.2155  -12.4399 C   0  0  0  0  0  0  0  0  0  0  0  0
   -5.5162   13.6516  -13.4342 O   0  0  0  0  0  0  0  0  0  0  0  0
   -6.6346   13.4940  -11.3203 C   0  0  0  0  0  0  0  0  0  0  0  0
   -6.9917   14.8192  -10.1191 S   0  0  0  0  0  0  0  0  0  0  0  0
   -8.5934   22.2801   -4.2313 H   0  0  0  0  0  0  0  0  0  0  0  0
   -7.7555   18.5006   -9.6579 C   0  0  0  0  0  0  0  0  0  0  0  0
   -6.6588   17.7926   -9.6656 N   0  0  0  0  0  0  0  0  0  0  0  0
   -9.3625   19.8822   -5.9821 C   0  0  0  0  0  0  0  0  0  0  0  0
   -9.4528   20.6757   -7.1188 C   0  0  0  0  0  0  0  0  0  0  0  0
   -8.9329   20.2317   -8.3149 C   0  0  0  0  0  0  0  0  0  0  0  0
   -8.3129   18.9796   -8.3834 C   0  0  0  0  0  0  0  0  0  0  0  0
   -8.2242   18.1848   -7.2357 C   0  0  0  0  0  0  0  0  0  0  0  0
   -8.7428   18.6406   -6.0433 C   0  0  0  0  0  0  0  0  0  0  0  0
   -9.8771   20.3246   -4.8051 O   0  0  0  0  0  0  0  0  0  0  0  0
  -11.3535   22.2368   -4.7397 C   0  0  0  0  0  0  0  0  0  0  0  0
   -9.9132   21.7388   -4.6036 C   0  0  0  0  0  0  0  0  0  0  0  0
   -9.3899   22.0680   -3.2040 C   0  0  0  0  0  0  0  0  0  0  0  0
   -5.7236   12.4367  -10.6934 C   0  0  0  0  0  0  0  0  0  0  0  0
   -6.1629   11.0663  -11.1403 C   0  0  0  0  0  0  0  0  0  0  0  0
   -5.5869   10.0756  -10.7244 O   0  0  0  0  0  0  0  0  0  0  0  0
   -7.0945   10.9483  -11.9180 O   0  0  0  0  0  0  0  0  0  0  0  0
    5.1879    9.5538  -15.1109 H   0  0  0  0  0  0  0  0  0  0  0  0
 18 19  1  0  0  0
 19 20  1  0  0  0
 19 17  1  0  0  0
 17 11  1  0  0  0
 11 16  2  0  0  0
 11 12  1  0  0  0
 12 13  2  0  0  0
 13 14  1  0  0  0
 14  9  1  0  0  0
 14 15  2  0  0  0
  9 10  2  0  0  0
 10  1  1  0  0  0
  1  2  2  0  0  0
  2  7  1  0  0  0
  2  3  1  0  0  0
  3  4  1  0  0  0
  4  5  2  0  0  0
  4  6  1  0  0  0
  6 21  1  0  0  0
  6  7  1  0  0  0
 21 22  1  0  0  0
 22 23  2  0  0  0
 22 24  1  0  0  0
 15 16  1  0  0  0
  3  8  1  0  0  0
 24 25  1  0  0  0
M  END
> <minimizedAffinity>
-7.43370

$$$$
ZINC000060242182


 28 30  0  0  0  0  0  0  0  0999 V2000
   -7.3856   15.4606   -8.6948 N   0  0  0  0  0  0  0  0  0  0  0  0
   -6.9956   15.9645   -7.3727 C   0  0  0  0  0  0  0  0  0  0  0  0
   -8.2858   15.9356   -6.5236 C   0  0  0  0  0  0  0  0  0  0  0  0
   -9.1036   14.8299   -7.2305 C   0  0  0  0  0  0  0  0  0  0  0  0
   -8.5658   14.8193   -8.6443 C   0  0  0  0  0  0  0  0  0  0  0  0
   -9.1159   14.3011   -9.5930 O   0  0  0  0  0  0  0  0  0  0  0  0
   -6.1180   18.2360  -12.5500 C   0  0  0  0  0  0  0  0  0  0  0  0
   -5.9945   16.9665  -11.7473 C   0  0  0  0  0  0  0  0  0  0  0  0
   -5.1318   15.9687  -12.1617 C   0  0  0  0  0  0  0  0  0  0  0  0
   -5.0159   14.8020  -11.4281 C   0  0  0  0  0  0  0  0  0  0  0  0
   -5.7617   14.6305  -10.2787 C   0  0  0  0  0  0  0  0  0  0  0  0
   -6.6289   15.6311   -9.8594 C   0  0  0  0  0  0  0  0  0  0  0  0
   -6.7390   16.8034  -10.5953 C   0  0  0  0  0  0  0  0  0  0  0  0
   -7.6788   17.8918  -10.1441 C   0  0  0  0  0  0  0  0  0  0  0  0
   -9.0018   17.2601   -6.5855 C   0  0  0  0  0  0  0  0  0  0  0  0
  -10.1933   17.2956   -6.8086 O   0  0  0  0  0  0  0  0  0  0  0  0
   -8.3180   18.4055   -6.3929 N   0  0  0  0  0  0  0  0  0  0  0  0
  -11.8705   11.4019   -4.9377 H   0  0  0  0  0  0  0  0  0  0  0  0
   -8.9774   19.6256   -6.4500 C   0  0  0  0  0  0  0  0  0  0  0  0
   -9.6966   20.1625   -5.4891 N   0  0  0  0  0  0  0  0  0  0  0  0
  -10.1804   21.3375   -5.8921 C   0  0  0  0  0  0  0  0  0  0  0  0
   -9.7789   21.5688   -7.1134 N   0  0  0  0  0  0  0  0  0  0  0  0
   -8.9894   20.4736   -7.4996 N   0  0  0  0  0  0  0  0  0  0  0  0
   -6.1328   14.1360  -12.7792 H   0  0  0  0  0  0  0  0  0  0  0  0
  -11.1985   22.4074   -4.9311 S   0  0  0  0  0  0  0  0  0  0  0  0
  -10.6119   22.1824   -3.2293 C   0  0  0  0  0  0  0  0  0  0  0  0
  -10.8792   23.7100   -5.4004 O   0  0  0  0  0  0  0  0  0  0  0  0
  -12.5072   21.8746   -5.0819 O   0  0  0  0  0  0  0  0  0  0  0  0
  7  8  1  0  0  0
  8 13  2  0  0  0
  8  9  1  0  0  0
  9 10  2  0  0  0
 10 11  1  0  0  0
 11 12  2  0  0  0
 12  1  1  0  0  0
 12 13  1  0  0  0
  1  5  1  0  0  0
  1  2  1  0  0  0
  2  3  1  0  0  0
  3 15  1  0  0  0
  3  4  1  0  0  0
 15 16  2  0  0  0
 15 17  1  0  0  0
 17 19  1  0  0  0
 19 23  1  0  0  0
 19 20  2  0  0  0
 20 21  1  0  0  0
 21 25  1  0  0  0
 21 22  2  0  0  0
 25 26  1  0  0  0
 25 27  2  0  0  0
 25 28  2  0  0  0
 22 23  1  0  0  0
  4  5  1  0  0  0
  5  6  2  0  0  0
 13 14  1  0  0  0
 17 18  1  0  0  0
 23 24  1  0  0  0
M  END
> <minimizedAffinity>
-8.58542

$$$$
ZINC000019500597


 23 25  0  0  0  0  0  0  0  0999 V2000
   -7.5721   15.8604   -7.4050 C   0  0  0  0  0  0  0  0  0  0  0  0
   -8.9750   19.6614   -6.1995 N   0  0  0  0  0  0  0  0  0  0  0  0
   -8.6656   19.4585   -7.6210 C   0  0  0  0  0  0  0  0  0  0  0  0
   -7.7422   18.2479   -7.7745 C   0  0  0  0  0  0  0  0  0  0  0  0
   -8.4052   17.0569   -7.2248 N   0  0  0  0  0  0  0  0  0  0  0  0
   -8.7436   17.2548   -5.8083 C   0  0  0  0  0  0  0  0  0  0  0  0
   -9.6587   18.4735   -5.6714 C   0  0  0  0  0  0  0  0  0  0  0  0
   -9.9581   21.8811   -7.2303 H   0  0  0  0  0  0  0  0  0  0  0  0
   -9.8467   20.8344   -6.0510 C   0  0  0  0  0  0  0  0  0  0  0  0
   -9.2903   23.1848   -6.4082 C   0  0  0  0  0  0  0  0  0  0  0  0
   -9.3124   21.9667   -6.8898 C   0  0  0  0  0  0  0  0  0  0  0  0
   -7.9970   15.1362   -8.6565 C   0  0  0  0  0  0  0  0  0  0  0  0
   -8.8763   14.1679   -8.7400 N   0  0  0  0  0  0  0  0  0  0  0  0
   -8.9622   13.8140   -9.9759 N   0  0  0  0  0  0  0  0  0  0  0  0
   -8.1606   14.5315  -10.6828 N   0  0  0  0  0  0  0  0  0  0  0  0
   -7.5513   15.3623   -9.9063 N   0  0  0  0  0  0  0  0  0  0  0  0
   -6.5546   16.3580  -10.3078 C   0  0  0  0  0  0  0  0  0  0  0  0
   -5.3943   15.6717  -11.0577 C   0  0  0  0  0  0  0  0  0  0  0  0
   -5.7613   15.8322  -12.5539 C   0  0  0  0  0  0  0  0  0  0  0  0
   -6.3779   17.2522  -12.6042 C   0  0  0  0  0  0  0  0  0  0  0  0
   -7.1800   17.3630  -11.2911 C   0  0  0  0  0  0  0  0  0  0  0  0
   -6.1045   16.2748   -7.5289 C   0  0  0  0  0  0  0  0  0  0  0  0
   -5.2080   15.1080   -7.1097 C   0  0  0  0  0  0  0  0  0  0  0  0
 10 11  2  0  0  0
 11  9  1  0  0  0
  9  2  1  0  0  0
  2  7  1  0  0  0
  2  3  1  0  0  0
  3  4  1  0  0  0
  4  5  1  0  0  0
  5  1  1  0  0  0
  5  6  1  0  0  0
  1 22  1  0  0  0
  1 12  1  0  0  0
 22 23  1  0  0  0
 12 16  1  0  0  0
 12 13  2  0  0  0
 13 14  1  0  0  0
 14 15  2  0  0  0
 15 16  1  0  0  0
 16 17  1  0  0  0
 17 21  1  0  0  0
 17 18  1  0  0  0
 18 19  1  0  0  0
 19 20  1  0  0  0
 20 21  1  0  0  0
  6  7  1  0  0  0
  2  8  1  0  0  0
M  CHG 1   2   1
M  END
> <minimizedAffinity>
-6.97214

$$$$
ZINC000100052499


 26 26  0  0  0  0  0  0  0  0999 V2000
   -7.6389   14.3234  -11.7774 N   0  0  0  0  0  0  0  0  0  0  0  0
   -7.5937   15.7871  -11.7549 C   0  0  0  0  0  0  0  0  0  0  0  0
   -6.2269   16.2394  -11.2288 C   0  0  0  0  0  0  0  0  0  0  0  0
   -6.1709   16.0000   -9.7156 C   0  0  0  0  0  0  0  0  0  0  0  0
   -6.0231   14.5651   -9.4622 N   0  0  0  0  0  0  0  0  0  0  0  0
   -5.0788   13.7688  -10.2483 C   0  0  0  0  0  0  0  0  0  0  0  0
   -5.8576   12.7837  -11.1266 C   0  0  0  0  0  0  0  0  0  0  0  0
   -6.4969   13.5560  -12.2780 C   0  0  0  0  0  0  0  0  0  0  0  0
   -9.2533   13.9416  -10.2281 O   0  0  0  0  0  0  0  0  0  0  0  0
   -8.7783   13.6542  -11.3121 N   0  0  0  0  0  0  0  0  0  0  0  0
   -9.2970   12.7884  -11.9940 O   0  0  0  0  0  0  0  0  0  0  0  0
   -5.1689   15.4685  -11.8865 N   0  0  0  0  0  0  0  0  0  0  0  0
   -4.1173   15.2606  -11.3080 O   0  0  0  0  0  0  0  0  0  0  0  0
   -5.3407   15.0355  -13.0119 O   0  0  0  0  0  0  0  0  0  0  0  0
   -6.0410   17.6653  -11.5088 N   0  0  0  0  0  0  0  0  0  0  0  0
   -6.4340   18.4987  -10.7122 O   0  0  0  0  0  0  0  0  0  0  0  0
   -5.4934   18.0173  -12.5382 O   0  0  0  0  0  0  0  0  0  0  0  0
   -6.7895   13.9514   -8.4629 N   0  0  0  0  0  0  0  0  0  0  0  0
   -6.2516   13.2397   -7.6336 O   0  0  0  0  0  0  0  0  0  0  0  0
   -7.9938   14.1294   -8.4235 O   0  0  0  0  0  0  0  0  0  0  0  0
   -4.9423   11.7719  -11.6604 N   0  0  0  0  0  0  0  0  0  0  0  0
   -3.9715   12.1123  -12.3123 O   0  0  0  0  0  0  0  0  0  0  0  0
   -5.1524   10.5903  -11.4524 O   0  0  0  0  0  0  0  0  0  0  0  0
   -6.8994   12.1319  -10.3290 N   0  0  0  0  0  0  0  0  0  0  0  0
   -7.9144   11.7272  -10.8670 O   0  0  0  0  0  0  0  0  0  0  0  0
   -6.7504   11.9947   -9.1281 O   0  0  0  0  0  0  0  0  0  0  0  0
  9 10  1  0  0  0
 10 11  2  0  0  0
 10  1  1  0  0  0
  1  8  1  0  0  0
  1  2  1  0  0  0
  2  3  1  0  0  0
  3 12  1  0  0  0
  3 15  1  0  0  0
  3  4  1  0  0  0
 12 13  1  0  0  0
 12 14  2  0  0  0
 15 16  1  0  0  0
 15 17  2  0  0  0
  4  5  1  0  0  0
  5 18  1  0  0  0
  5  6  1  0  0  0
 18 19  1  0  0  0
 18 20  2  0  0  0
  6  7  1  0  0  0
  7 21  1  0  0  0
  7 24  1  0  0  0
  7  8  1  0  0  0
 21 22  1  0  0  0
 21 23  2  0  0  0
 24 25  1  0  0  0
 24 26  2  0  0  0
M  CHG 1   9  -1
M  CHG 1  10   1
M  CHG 1  12   1
M  CHG 1  13  -1
M  CHG 1  15   1
M  CHG 1  16  -1
M  CHG 1  18   1
M  CHG 1  19  -1
M  CHG 1  21   1
M  CHG 1  22  -1
M  CHG 1  24   1
M  CHG 1  25  -1
M  END
> <minimizedAffinity>
-7.27812

$$$$
ZINC000035997757


 33 36  0  0  0  0  0  0  0  0999 V2000
   -8.4036   17.8789   -7.2065 C   0  0  0  0  0  0  0  0  0  0  0  0
   -8.3135   17.7273   -5.9008 N   0  0  0  0  0  0  0  0  0  0  0  0
   -8.8659   18.7718   -5.2816 C   0  0  0  0  0  0  0  0  0  0  0  0
   -9.3357   19.6398   -6.2615 C   0  0  0  0  0  0  0  0  0  0  0  0
   -9.9694   20.8338   -5.8743 C   0  0  0  0  0  0  0  0  0  0  0  0
  -10.3892   21.6091   -6.7158 O   0  0  0  0  0  0  0  0  0  0  0  0
  -10.1083   21.1120   -4.5616 N   0  0  0  0  0  0  0  0  0  0  0  0
   -9.6506   20.2661   -3.6225 C   0  0  0  0  0  0  0  0  0  0  0  0
   -9.7937   20.5494   -2.4486 O   0  0  0  0  0  0  0  0  0  0  0  0
   -9.0381   19.1126   -3.9497 N   0  0  0  0  0  0  0  0  0  0  0  0
   -8.5531   18.2171   -2.8965 C   0  0  0  0  0  0  0  0  0  0  0  0
   -9.0261   19.0554   -7.4823 N   0  0  0  0  0  0  0  0  0  0  0  0
   -4.1803   12.2996   -9.2042 H   0  0  0  0  0  0  0  0  0  0  0  0
   -6.8151   14.5260   -9.0331 N   0  0  0  0  0  0  0  0  0  0  0  0
   -8.2362   14.8274   -9.2560 C   0  0  0  0  0  0  0  0  0  0  0  0
   -8.7377   15.7568   -8.1482 C   0  0  0  0  0  0  0  0  0  0  0  0
   -7.9354   16.9880   -8.1447 N   0  0  0  0  0  0  0  0  0  0  0  0
   -6.5145   16.6866   -7.9217 C   0  0  0  0  0  0  0  0  0  0  0  0
   -6.0128   15.7572   -9.0295 C   0  0  0  0  0  0  0  0  0  0  0  0
   -6.3152   13.5748  -10.0347 C   0  0  0  0  0  0  0  0  0  0  0  0
   -6.8382   12.1962   -9.7232 C   0  0  0  0  0  0  0  0  0  0  0  0
   -6.7382   11.7506   -8.6045 O   0  0  0  0  0  0  0  0  0  0  0  0
   -7.8932   12.1756  -11.8600 C   0  0  0  0  0  0  0  0  0  0  0  0
   -7.4151   11.4634  -10.6885 O   0  0  0  0  0  0  0  0  0  0  0  0
   -9.3216   19.5975   -8.8109 C   0  0  0  0  0  0  0  0  0  0  0  0
   -8.0119   19.9230   -9.5318 C   0  0  0  0  0  0  0  0  0  0  0  0
   -8.3160   20.3842  -10.9586 C   0  0  0  0  0  0  0  0  0  0  0  0
   -7.6648   19.4440  -11.9399 C   0  0  0  0  0  0  0  0  0  0  0  0
   -7.1147   18.2555  -11.4975 C   0  0  0  0  0  0  0  0  0  0  0  0
   -6.5174   17.3930  -12.3976 C   0  0  0  0  0  0  0  0  0  0  0  0
   -6.4705   17.7189  -13.7402 C   0  0  0  0  0  0  0  0  0  0  0  0
   -7.0214   18.9069  -14.1827 C   0  0  0  0  0  0  0  0  0  0  0  0
   -7.6226   19.7674  -13.2832 C   0  0  0  0  0  0  0  0  0  0  0  0
 23 24  1  0  0  0
 24 21  1  0  0  0
 21 22  2  0  0  0
 21 20  1  0  0  0
 20 14  1  0  0  0
 14 19  1  0  0  0
 14 15  1  0  0  0
 15 16  1  0  0  0
 16 17  1  0  0  0
 17  1  1  0  0  0
 17 18  1  0  0  0
  1 12  1  0  0  0
  1  2  2  0  0  0
  2  3  1  0  0  0
  3 10  1  0  0  0
  3  4  2  0  0  0
  4  5  1  0  0  0
  4 12  1  0  0  0
  5  6  2  0  0  0
  5  7  1  0  0  0
  7  8  1  0  0  0
  8  9  2  0  0  0
  8 10  1  0  0  0
 10 11  1  0  0  0
 12 25  1  0  0  0
 25 26  1  0  0  0
 26 27  1  0  0  0
 27 28  1  0  0  0
 28 33  1  0  0  0
 28 29  2  0  0  0
 29 30  1  0  0  0
 30 31  2  0  0  0
 31 32  1  0  0  0
 32 33  2  0  0  0
 18 19  1  0  0  0
  7 13  1  0  0  0
M  END
> <minimizedAffinity>
-8.56034

$$$$
ZINC000069585925


 30 32  0  0  0  0  0  0  0  0999 V2000
   -7.8876   16.7445   -6.4024 O   0  0  0  0  0  0  0  0  0  0  0  0
   -8.6930   16.9801   -7.2823 C   0  0  0  0  0  0  0  0  0  0  0  0
   -8.5012   16.4859   -8.5214 N   0  0  0  0  0  0  0  0  0  0  0  0
   -9.7805   17.7309   -7.0170 N   0  0  0  0  0  0  0  0  0  0  0  0
   -8.8210   15.3766   -6.1788 H   0  0  0  0  0  0  0  0  0  0  0  0
   -8.8210   15.3766   -6.1788 H   0  0  0  0  0  0  0  0  0  0  0  0
  -10.0385   18.1512   -5.7061 C   0  0  0  0  0  0  0  0  0  0  0  0
  -10.9047   17.4255   -4.9008 C   0  0  0  0  0  0  0  0  0  0  0  0
  -11.1576   17.8425   -3.6079 C   0  0  0  0  0  0  0  0  0  0  0  0
  -10.5489   18.9817   -3.1151 C   0  0  0  0  0  0  0  0  0  0  0  0
   -9.6852   19.7089   -3.9140 C   0  0  0  0  0  0  0  0  0  0  0  0
   -9.4228   19.2939   -5.2065 C   0  0  0  0  0  0  0  0  0  0  0  0
   -8.5787   20.0037   -5.9868 F   0  0  0  0  0  0  0  0  0  0  0  0
  -12.0812   17.0679   -2.7489 N   0  0  0  0  0  0  0  0  0  0  0  0
  -13.2288   17.4453   -2.5932 O   0  0  0  0  0  0  0  0  0  0  0  0
  -11.6938   16.0532   -2.1977 O   0  0  0  0  0  0  0  0  0  0  0  0
   -7.3223   15.6648   -8.8082 C   0  0  0  0  0  0  0  0  0  0  0  0
   -7.1590   15.5180  -10.3223 C   0  0  0  0  0  0  0  0  0  0  0  0
   -6.8697   14.1155  -10.6499 N   0  0  0  0  0  0  0  0  0  0  0  0
   -8.0403   13.5133  -11.3027 C   0  0  0  0  0  0  0  0  0  0  0  0
   -7.7363   12.0523  -11.6432 C   0  0  0  0  0  0  0  0  0  0  0  0
   -7.3844   11.3526  -10.4463 O   0  0  0  0  0  0  0  0  0  0  0  0
   -6.2630   11.9165   -9.7606 C   0  0  0  0  0  0  0  0  0  0  0  0
   -6.5641   13.3774   -9.4167 C   0  0  0  0  0  0  0  0  0  0  0  0
   -7.9974   16.1319  -14.5985 H   0  0  0  0  0  0  0  0  0  0  0  0
   -6.0046   16.4018  -10.7990 C   0  0  0  0  0  0  0  0  0  0  0  0
   -6.5475   17.6825  -11.4784 C   0  0  0  0  0  0  0  0  0  0  0  0
   -5.5857   17.8436  -12.6830 C   0  0  0  0  0  0  0  0  0  0  0  0
   -5.3420   16.4841  -13.1037 O   0  0  0  0  0  0  0  0  0  0  0  0
   -5.2045   15.6921  -11.9083 C   0  0  0  0  0  0  0  0  0  0  0  0
  1  2  2  0  0  0
  2  3  1  0  0  0
  2  4  1  0  0  0
  3 17  1  0  0  0
 17 18  1  0  0  0
 18 26  1  0  0  0
 18 19  1  0  0  0
 26 30  1  0  0  0
 26 27  1  0  0  0
 27 28  1  0  0  0
 28 29  1  0  0  0
 29 30  1  0  0  0
 19 24  1  0  0  0
 19 20  1  0  0  0
 20 21  1  0  0  0
 21 22  1  0  0  0
 22 23  1  0  0  0
 23 24  1  0  0  0
  4  7  1  0  0  0
  7 12  1  0  0  0
  7  8  2  0  0  0
  8  9  1  0  0  0
  9 14  1  0  0  0
  9 10  2  0  0  0
 14 15  1  0  0  0
 14 16  2  0  0  0
 10 11  1  0  0  0
 11 12  2  0  0  0
 12 13  1  0  0  0
  3  5  1  0  0  0
 19 25  1  0  0  0
  4  6  1  0  0  0
M  CHG 1  14   1
M  CHG 1  15  -1
M  CHG 1  19   1
M  END
> <minimizedAffinity>
-7.69439

$$$$
ZINC000002649913


 28 28  0  0  0  0  0  0  0  0999 V2000
   -6.9706   15.6916   -8.8918 N   0  0  0  0  0  0  0  0  0  0  0  0
   -7.7709   14.6945   -8.4730 C   0  0  0  0  0  0  0  0  0  0  0  0
   -7.4357   13.5410   -8.6616 O   0  0  0  0  0  0  0  0  0  0  0  0
   -8.9346   14.9502   -7.8493 N   0  0  0  0  0  0  0  0  0  0  0  0
   -9.3326   16.2180   -7.6263 C   0  0  0  0  0  0  0  0  0  0  0  0
  -10.3895   16.4387   -7.0594 O   0  0  0  0  0  0  0  0  0  0  0  0
   -8.5202   17.2859   -8.0514 C   0  0  0  0  0  0  0  0  0  0  0  0
   -7.3271   17.0039   -8.6846 C   0  0  0  0  0  0  0  0  0  0  0  0
   -6.5096   18.0223   -9.1128 N   0  0  0  0  0  0  0  0  0  0  0  0
   -7.0489   14.5196  -11.0284 H   0  0  0  0  0  0  0  0  0  0  0  0
   -7.0489   14.5196  -11.0284 H   0  0  0  0  0  0  0  0  0  0  0  0
   -7.0489   14.5196  -11.0284 H   0  0  0  0  0  0  0  0  0  0  0  0
   -8.9161   18.6216   -7.8284 N   0  0  0  0  0  0  0  0  0  0  0  0
   -8.7941   19.1653   -6.5994 C   0  0  0  0  0  0  0  0  0  0  0  0
   -8.2668   18.5349   -5.7068 O   0  0  0  0  0  0  0  0  0  0  0  0
   -9.4597   19.4183   -8.9311 C   0  0  0  0  0  0  0  0  0  0  0  0
   -8.4699   20.5265   -9.2958 C   0  0  0  0  0  0  0  0  0  0  0  0
   -8.6248   20.8688  -10.6746 O   0  0  0  0  0  0  0  0  0  0  0  0
   -8.2466   19.8282  -11.5779 C   0  0  0  0  0  0  0  0  0  0  0  0
   -9.3128   20.5553   -6.3354 C   0  0  0  0  0  0  0  0  0  0  0  0
  -10.2146   20.5371   -5.0996 C   0  0  0  0  0  0  0  0  0  0  0  0
  -11.0738   21.7750   -5.0863 C   0  0  0  0  0  0  0  0  0  0  0  0
  -10.5626   22.8702   -4.9265 O   0  0  0  0  0  0  0  0  0  0  0  0
  -12.2803   21.6813   -5.2355 O   0  0  0  0  0  0  0  0  0  0  0  0
   -5.6012   14.5751   -6.2850 H   0  0  0  0  0  0  0  0  0  0  0  0
   -5.7090   15.3777   -9.5673 C   0  0  0  0  0  0  0  0  0  0  0  0
   -5.0835   16.1938  -11.8444 C   0  0  0  0  0  0  0  0  0  0  0  0
   -5.9614   15.2110  -11.0672 C   0  0  0  0  0  0  0  0  0  0  0  0
 27 28  1  0  0  0
 28 26  1  0  0  0
 26  1  1  0  0  0
  1  8  1  0  0  0
  1  2  1  0  0  0
  2  3  2  0  0  0
  2  4  1  0  0  0
  4  5  1  0  0  0
  5  6  2  0  0  0
  5  7  1  0  0  0
  7 13  1  0  0  0
  7  8  2  0  0  0
 13 16  1  0  0  0
 13 14  1  0  0  0
 16 17  1  0  0  0
 17 18  1  0  0  0
 18 19  1  0  0  0
 14 15  2  0  0  0
 14 20  1  0  0  0
 20 21  1  0  0  0
 21 22  1  0  0  0
 22 23  2  0  0  0
 22 24  1  0  0  0
  8  9  1  0  0  0
  4 10  1  0  0  0
 24 25  1  0  0  0
  9 11  1  0  0  0
  9 12  1  0  0  0
M  END
> <minimizedAffinity>
-6.92648

$$$$
ZINC000103454120


 19 19  0  0  0  0  0  0  0  0999 V2000
   -8.1602   19.2408  -10.7310 C   0  0  0  0  0  0  0  0  0  0  0  0
   -9.0592   19.6572   -8.5049 C   0  0  0  0  0  0  0  0  0  0  0  0
   -9.7648   18.6757   -8.6382 O   0  0  0  0  0  0  0  0  0  0  0  0
   -8.2211   20.0242   -9.4946 N   0  0  0  0  0  0  0  0  0  0  0  0
  -12.0451   21.2495   -5.0902 H   0  0  0  0  0  0  0  0  0  0  0  0
   -9.0958   21.7725   -7.3162 C   0  0  0  0  0  0  0  0  0  0  0  0
   -9.1204   20.4438   -7.2634 C   0  0  0  0  0  0  0  0  0  0  0  0
   -9.2112   19.7442   -5.9318 C   0  0  0  0  0  0  0  0  0  0  0  0
   -8.6625   23.9457   -6.2033 C   0  0  0  0  0  0  0  0  0  0  0  0
   -9.3405   22.5809   -6.0681 C   0  0  0  0  0  0  0  0  0  0  0  0
   -6.8164   18.5134  -10.8082 C   0  0  0  0  0  0  0  0  0  0  0  0
   -6.8553   17.2914   -9.9271 C   0  0  0  0  0  0  0  0  0  0  0  0
   -7.4790   16.1681  -10.2854 C   0  0  0  0  0  0  0  0  0  0  0  0
   -7.3113   14.9679   -9.0107 S   0  0  0  0  0  0  0  0  0  0  0  0
   -6.3762   16.0925   -8.0338 C   0  0  0  0  0  0  0  0  0  0  0  0
   -6.2418   17.2478   -8.6870 C   0  0  0  0  0  0  0  0  0  0  0  0
   -6.5580   18.1081  -12.1963 N   0  0  0  0  0  0  0  0  0  0  0  0
   -7.0984   19.0938  -13.1420 C   0  0  0  0  0  0  0  0  0  0  0  0
   -5.1227   17.8926  -12.4233 C   0  0  0  0  0  0  0  0  0  0  0  0
  9 10  1  0  0  0
 10  6  1  0  0  0
  6  7  2  0  0  0
  7  8  1  0  0  0
  7  2  1  0  0  0
  2  3  2  0  0  0
  2  4  1  0  0  0
  4  1  1  0  0  0
  1 11  1  0  0  0
 11 12  1  0  0  0
 11 17  1  0  0  0
 12 16  1  0  0  0
 12 13  2  0  0  0
 13 14  1  0  0  0
 14 15  1  0  0  0
 15 16  2  0  0  0
 17 18  1  0  0  0
 17 19  1  0  0  0
  4  5  1  0  0  0
M  END
> <minimizedAffinity>
-5.76485

$$$$
ZINC000033940339


 32 34  0  0  0  0  0  0  0  0999 V2000
   -8.3896   17.6557   -7.0612 N   0  0  0  0  0  0  0  0  0  0  0  0
   -9.0761   18.4603   -6.2259 C   0  0  0  0  0  0  0  0  0  0  0  0
   -8.9760   19.6671   -6.3258 O   0  0  0  0  0  0  0  0  0  0  0  0
   -3.1489   15.1540  -10.8866 H   0  0  0  0  0  0  0  0  0  0  0  0
   -7.2057   18.6941  -12.2399 C   0  0  0  0  0  0  0  0  0  0  0  0
   -6.8045   17.6794  -11.4457 C   0  0  0  0  0  0  0  0  0  0  0  0
   -7.1413   17.6812  -10.0875 N   0  0  0  0  0  0  0  0  0  0  0  0
   -6.7541   17.2218   -8.9039 C   0  0  0  0  0  0  0  0  0  0  0  0
   -6.0306   16.3019   -8.5851 O   0  0  0  0  0  0  0  0  0  0  0  0
   -7.5225   18.2361   -8.0897 C   0  0  0  0  0  0  0  0  0  0  0  0
   -8.2063   18.4816   -9.4231 C   0  0  0  0  0  0  0  0  0  0  0  0
   -8.0748   20.1825  -10.0682 S   0  0  0  0  0  0  0  0  0  0  0  0
   -8.0662   19.8570  -11.8671 C   0  0  0  0  0  0  0  0  0  0  0  0
   -6.0178   16.5785  -12.0042 C   0  0  0  0  0  0  0  0  0  0  0  0
   -4.7944   16.6176  -11.9629 O   0  0  0  0  0  0  0  0  0  0  0  0
   -6.5831   15.6183  -12.5128 O   0  0  0  0  0  0  0  0  0  0  0  0
   -7.9752   16.8167  -13.9195 H   0  0  0  0  0  0  0  0  0  0  0  0
   -7.2757   19.4711  -14.5337 C   0  0  0  0  0  0  0  0  0  0  0  0
   -6.7391   18.6538  -13.6242 C   0  0  0  0  0  0  0  0  0  0  0  0
   -9.9531   17.8731   -5.1857 C   0  0  0  0  0  0  0  0  0  0  0  0
  -10.8439   16.9804   -5.5126 N   0  0  0  0  0  0  0  0  0  0  0  0
  -11.8115   16.5658   -4.5656 O   0  0  0  0  0  0  0  0  0  0  0  0
   -7.4307   16.1261  -13.9479 H   0  0  0  0  0  0  0  0  0  0  0  0
   -9.8172   18.3005   -3.7767 C   0  0  0  0  0  0  0  0  0  0  0  0
   -9.0264   17.6527   -2.8986 C   0  0  0  0  0  0  0  0  0  0  0  0
   -9.1428   18.4707   -1.3424 S   0  0  0  0  0  0  0  0  0  0  0  0
  -10.2696   19.6338   -2.0334 C   0  0  0  0  0  0  0  0  0  0  0  0
  -10.8540   20.6848   -1.3469 N   0  0  0  0  0  0  0  0  0  0  0  0
  -10.4641   19.3578   -3.2849 N   0  0  0  0  0  0  0  0  0  0  0  0
  -10.3747   18.6453  -14.4278 H   0  0  0  0  0  0  0  0  0  0  0  0
  -10.3747   18.6453  -14.4278 H   0  0  0  0  0  0  0  0  0  0  0  0
  -10.3747   18.6453  -14.4278 H   0  0  0  0  0  0  0  0  0  0  0  0
 18 19  2  0  0  0
 19  5  1  0  0  0
  5 13  1  0  0  0
  5  6  2  0  0  0
  6 14  1  0  0  0
  6  7  1  0  0  0
 14 15  2  0  0  0
 14 16  1  0  0  0
  7 11  1  0  0  0
  7  8  1  0  0  0
  8  9  2  0  0  0
  8 10  1  0  0  0
 10  1  1  0  0  0
 10 11  1  0  0  0
  1  2  1  0  0  0
  2  3  2  0  0  0
  2 20  1  0  0  0
 20 21  2  0  0  0
 20 24  1  0  0  0
 21 22  1  0  0  0
 24 29  1  0  0  0
 24 25  2  0  0  0
 25 26  1  0  0  0
 26 27  1  0  0  0
 27 28  2  0  0  0
 27 29  1  0  0  0
 11 12  1  0  0  0
 12 13  1  0  0  0
 16 17  1  0  0  0
  1  4  1  0  0  0
 22 23  1  0  0  0
 28 30  1  0  0  0
 28 31  1  0  0  0
 29 32  1  0  0  0
M  CHG 1  28   1
M  END
> <minimizedAffinity>
-7.64596

$$$$
ZINC000585099424


 22 23  0  0  0  0  0  0  0  0999 V2000
   -9.4289   14.3837   -9.1206 O   0  0  0  0  0  0  0  0  0  0  0  0
   -8.2205   14.4786   -9.0792 C   0  0  0  0  0  0  0  0  0  0  0  0
   -7.6347   15.2082   -8.1090 N   0  0  0  0  0  0  0  0  0  0  0  0
   -9.4245   14.3812   -9.1209 H   0  0  0  0  0  0  0  0  0  0  0  0
   -8.4576   15.8866   -7.1047 C   0  0  0  0  0  0  0  0  0  0  0  0
   -7.8882   17.2810   -6.8359 C   0  0  0  0  0  0  0  0  0  0  0  0
   -7.9176   18.0893   -8.1073 C   0  0  0  0  0  0  0  0  0  0  0  0
   -6.7948   18.1391   -8.9112 C   0  0  0  0  0  0  0  0  0  0  0  0
   -6.8324   18.8855  -10.0793 C   0  0  0  0  0  0  0  0  0  0  0  0
   -8.0034   19.5565  -10.3960 C   0  0  0  0  0  0  0  0  0  0  0  0
   -9.0868   19.4601   -9.5430 C   0  0  0  0  0  0  0  0  0  0  0  0
   -9.0166   18.7368   -8.4428 N   0  0  0  0  0  0  0  0  0  0  0  0
   -7.3736   13.7757  -10.1087 C   0  0  0  0  0  0  0  0  0  0  0  0
   -6.7348   14.7962  -11.0151 C   0  0  0  0  0  0  0  0  0  0  0  0
   -7.5027   15.4715  -11.9452 C   0  0  0  0  0  0  0  0  0  0  0  0
   -6.9165   16.4075  -12.7765 C   0  0  0  0  0  0  0  0  0  0  0  0
   -5.5627   16.6686  -12.6776 C   0  0  0  0  0  0  0  0  0  0  0  0
   -4.7950   15.9937  -11.7468 C   0  0  0  0  0  0  0  0  0  0  0  0
   -5.3818   15.0608  -10.9125 C   0  0  0  0  0  0  0  0  0  0  0  0
   -6.2835   12.9651   -9.4049 C   0  0  0  0  0  0  0  0  0  0  0  0
   -6.8411   11.7463   -8.9094 O   0  0  0  0  0  0  0  0  0  0  0  0
   -8.6397   15.3673   -8.9203 H   0  0  0  0  0  0  0  0  0  0  0  0
  1  2  2  0  0  0
  2  3  1  0  0  0
  2 13  1  0  0  0
  3  5  1  0  0  0
  5  6  1  0  0  0
  6  7  1  0  0  0
  7 12  1  0  0  0
  7  8  2  0  0  0
  8  9  1  0  0  0
  9 10  2  0  0  0
 10 11  1  0  0  0
 11 12  2  0  0  0
 13 20  1  0  0  0
 13 14  1  0  0  0
 20 21  1  0  0  0
 14 19  1  0  0  0
 14 15  2  0  0  0
 15 16  1  0  0  0
 16 17  2  0  0  0
 17 18  1  0  0  0
 18 19  2  0  0  0
  3  4  1  0  0  0
 21 22  1  0  0  0
M  END
> <minimizedAffinity>
-6.91899

$$$$
ZINC000104037321


 35 36  0  0  0  0  0  0  0  0999 V2000
   -7.4792   14.7542   -8.7128 C   0  0  0  0  0  0  0  0  0  0  0  0
   -7.8725   14.0648  -10.0209 C   0  0  0  0  0  0  0  0  0  0  0  0
   -9.2961   13.9687  -10.0995 O   0  0  0  0  0  0  0  0  0  0  0  0
   -4.5630   11.2192   -8.7600 H   0  0  0  0  0  0  0  0  0  0  0  0
   -7.2728   12.6828  -10.0606 C   0  0  0  0  0  0  0  0  0  0  0  0
   -7.0195   12.1048   -9.0309 O   0  0  0  0  0  0  0  0  0  0  0  0
   -6.9890   12.0223  -11.3850 C   0  0  0  0  0  0  0  0  0  0  0  0
   -7.7605   10.8244  -11.4948 O   0  0  0  0  0  0  0  0  0  0  0  0
   -9.4103   10.4677   -8.7564 H   0  0  0  0  0  0  0  0  0  0  0  0
   -4.7324   12.5222  -11.8398 O   0  0  0  0  0  0  0  0  0  0  0  0
   -5.5229   11.6856  -11.4746 C   0  0  0  0  0  0  0  0  0  0  0  0
   -5.0425   10.3065  -11.1024 C   0  0  0  0  0  0  0  0  0  0  0  0
   -4.4543    9.6824  -12.2453 O   0  0  0  0  0  0  0  0  0  0  0  0
   -9.3141   14.7782  -11.2605 H   0  0  0  0  0  0  0  0  0  0  0  0
   -8.5770   15.6230   -8.2679 N   0  0  0  0  0  0  0  0  0  0  0  0
   -4.1459   12.5067  -10.9130 H   0  0  0  0  0  0  0  0  0  0  0  0
   -8.2509   16.2696   -7.1096 N   0  0  0  0  0  0  0  0  0  0  0  0
   -6.2702   10.0978   -8.9701 H   0  0  0  0  0  0  0  0  0  0  0  0
   -8.6016   17.6104   -6.9357 C   0  0  0  0  0  0  0  0  0  0  0  0
   -8.8585   18.4116   -8.0409 C   0  0  0  0  0  0  0  0  0  0  0  0
   -9.2053   19.7369   -7.8654 C   0  0  0  0  0  0  0  0  0  0  0  0
   -9.2966   20.2664   -6.5913 C   0  0  0  0  0  0  0  0  0  0  0  0
   -9.0415   19.4715   -5.4889 C   0  0  0  0  0  0  0  0  0  0  0  0
   -8.6997   18.1440   -5.6570 C   0  0  0  0  0  0  0  0  0  0  0  0
   -6.2218   15.5961   -8.9381 C   0  0  0  0  0  0  0  0  0  0  0  0
   -6.2493   16.1647  -10.2924 N   0  0  0  0  0  0  0  0  0  0  0  0
   -9.8268   15.6970   -7.1647 H   0  0  0  0  0  0  0  0  0  0  0  0
   -6.4711   17.5119  -10.2534 N   0  0  0  0  0  0  0  0  0  0  0  0
   -9.3641   15.7596   -6.6960 H   0  0  0  0  0  0  0  0  0  0  0  0
   -6.8085   18.1983  -11.4221 C   0  0  0  0  0  0  0  0  0  0  0  0
   -6.2874   17.7910  -12.6437 C   0  0  0  0  0  0  0  0  0  0  0  0
   -6.6235   18.4716  -13.7974 C   0  0  0  0  0  0  0  0  0  0  0  0
   -7.4773   19.5577  -13.7375 C   0  0  0  0  0  0  0  0  0  0  0  0
   -7.9979   19.9658  -12.5231 C   0  0  0  0  0  0  0  0  0  0  0  0
   -7.6705   19.2862  -11.3662 C   0  0  0  0  0  0  0  0  0  0  0  0
 10 11  2  0  0  0
 11 12  1  0  0  0
 11  7  1  0  0  0
 12 13  1  0  0  0
  7  8  1  0  0  0
  7  5  1  0  0  0
  5  6  2  0  0  0
  5  2  1  0  0  0
  2  3  1  0  0  0
  2  1  1  0  0  0
  1 25  1  0  0  0
  1 15  1  0  0  0
 25 26  1  0  0  0
 26 28  1  0  0  0
 28 30  1  0  0  0
 30 35  1  0  0  0
 30 31  2  0  0  0
 31 32  1  0  0  0
 32 33  2  0  0  0
 33 34  1  0  0  0
 34 35  2  0  0  0
 15 17  1  0  0  0
 17 19  1  0  0  0
 19 24  1  0  0  0
 19 20  2  0  0  0
 20 21  1  0  0  0
 21 22  2  0  0  0
 22 23  1  0  0  0
 23 24  2  0  0  0
 13 14  1  0  0  0
  8  9  1  0  0  0
  3  4  1  0  0  0
 26 27  1  0  0  0
 28 29  1  0  0  0
 15 16  1  0  0  0
 17 18  1  0  0  0
M  END
> <minimizedAffinity>
-7.85760

$$$$
ZINC000009328956


 32 36  0  0  0  0  0  0  0  0999 V2000
   -8.6112   17.3905   -6.5031 N   0  0  0  0  0  0  0  0  0  0  0  0
   -9.5758   16.4498   -6.7277 C   0  0  0  0  0  0  0  0  0  0  0  0
  -10.7514   16.5244   -6.4412 O   0  0  0  0  0  0  0  0  0  0  0  0
   -8.8772   15.3020   -7.4043 C   0  0  0  0  0  0  0  0  0  0  0  0
   -9.5535   14.6129   -8.5962 C   0  0  0  0  0  0  0  0  0  0  0  0
   -8.3903   14.2495   -9.4715 N   0  0  0  0  0  0  0  0  0  0  0  0
   -7.2969   15.2312   -9.1889 C   0  0  0  0  0  0  0  0  0  0  0  0
   -6.0970   14.4940   -8.6464 C   0  0  0  0  0  0  0  0  0  0  0  0
   -6.0422   13.8684   -7.6088 O   0  0  0  0  0  0  0  0  0  0  0  0
   -5.0998   14.6626   -9.5337 N   0  0  0  0  0  0  0  0  0  0  0  0
   -5.4908   15.4398  -10.6254 C   0  0  0  0  0  0  0  0  0  0  0  0
   -4.7823   15.8484  -11.7529 C   0  0  0  0  0  0  0  0  0  0  0  0
   -5.3950   16.6290  -12.7116 C   0  0  0  0  0  0  0  0  0  0  0  0
   -6.7152   17.0116  -12.5620 C   0  0  0  0  0  0  0  0  0  0  0  0
   -7.4268   16.6081  -11.4453 C   0  0  0  0  0  0  0  0  0  0  0  0
   -6.8189   15.8285  -10.4876 C   0  0  0  0  0  0  0  0  0  0  0  0
   -7.8673   16.1942   -8.2329 C   0  0  0  0  0  0  0  0  0  0  0  0
   -7.4793   17.1795   -7.2504 C   0  0  0  0  0  0  0  0  0  0  0  0
   -6.3993   17.7158   -7.1251 O   0  0  0  0  0  0  0  0  0  0  0  0
   -8.3892   18.3113   -4.2767 H   0  0  0  0  0  0  0  0  0  0  0  0
   -8.3892   18.3113   -4.2767 H   0  0  0  0  0  0  0  0  0  0  0  0
   -8.3892   18.3113   -4.2767 H   0  0  0  0  0  0  0  0  0  0  0  0
   -9.3232   19.9362   -7.5594 C   0  0  0  0  0  0  0  0  0  0  0  0
   -9.1074   19.7190   -6.0837 C   0  0  0  0  0  0  0  0  0  0  0  0
   -9.2572   20.7705   -5.2012 C   0  0  0  0  0  0  0  0  0  0  0  0
   -9.0597   20.5719   -3.8469 C   0  0  0  0  0  0  0  0  0  0  0  0
   -8.7119   19.3209   -3.3724 C   0  0  0  0  0  0  0  0  0  0  0  0
   -8.5609   18.2651   -4.2504 C   0  0  0  0  0  0  0  0  0  0  0  0
   -8.7632   18.4602   -5.6096 C   0  0  0  0  0  0  0  0  0  0  0  0
   -8.5013   19.1124   -1.9222 N   0  0  0  0  0  0  0  0  0  0  0  0
   -7.4382   18.6769   -1.5175 O   0  0  0  0  0  0  0  0  0  0  0  0
   -9.3911   19.3764   -1.1334 O   0  0  0  0  0  0  0  0  0  0  0  0
 23 24  1  0  0  0
 24 29  2  0  0  0
 24 25  1  0  0  0
 25 26  2  0  0  0
 26 27  1  0  0  0
 27 30  1  0  0  0
 27 28  2  0  0  0
 30 31  1  0  0  0
 30 32  2  0  0  0
 28 29  1  0  0  0
 29  1  1  0  0  0
  1 18  1  0  0  0
  1  2  1  0  0  0
  2  3  2  0  0  0
  2  4  1  0  0  0
  4 17  1  0  0  0
  4  5  1  0  0  0
  5  6  1  0  0  0
  7  6  1  0  0  0
  7 16  1  0  0  0
  7  8  1  0  0  0
  7 17  1  0  0  0
  8  9  2  0  0  0
  8 10  1  0  0  0
 10 11  1  0  0  0
 11 16  2  0  0  0
 11 12  1  0  0  0
 12 13  2  0  0  0
 13 14  1  0  0  0
 14 15  2  0  0  0
 15 16  1  0  0  0
 17 18  1  0  0  0
 18 19  2  0  0  0
  6 20  1  0  0  0
  6 21  1  0  0  0
 10 22  1  0  0  0
M  CHG 1   6   1
M  CHG 1  30   1
M  CHG 1  31  -1
M  END
> <minimizedAffinity>
-7.76070

$$$$
ZINC000585293271


 26 28  0  0  0  0  0  0  0  0999 V2000
   -7.0984   16.8077   -9.1221 N   0  0  0  0  0  0  0  0  0  0  0  0
   -7.5663   18.1134   -8.6102 C   0  0  0  0  0  0  0  0  0  0  0  0
   -8.7909   17.7751   -7.7239 C   0  0  0  0  0  0  0  0  0  0  0  0
   -8.3446   16.4415   -7.0687 C   0  0  0  0  0  0  0  0  0  0  0  0
   -9.4794   15.6562   -6.6979 O   0  0  0  0  0  0  0  0  0  0  0  0
   -7.5463   15.7544   -8.1926 C   0  0  0  0  0  0  0  0  0  0  0  0
   -6.5302   18.1626  -11.9663 H   0  0  0  0  0  0  0  0  0  0  0  0
   -6.5302   18.1626  -11.9663 H   0  0  0  0  0  0  0  0  0  0  0  0
   -9.0144   18.8409   -6.6823 C   0  0  0  0  0  0  0  0  0  0  0  0
   -8.8081   18.5548   -5.3456 C   0  0  0  0  0  0  0  0  0  0  0  0
   -9.0129   19.5320   -4.3898 C   0  0  0  0  0  0  0  0  0  0  0  0
   -9.4245   20.7966   -4.7711 C   0  0  0  0  0  0  0  0  0  0  0  0
   -9.6814   22.0247   -3.5712 Cl  0  0  0  0  0  0  0  0  0  0  0  0
   -9.6308   21.0824   -6.1089 C   0  0  0  0  0  0  0  0  0  0  0  0
   -9.4201   20.1060   -7.0643 C   0  0  0  0  0  0  0  0  0  0  0  0
   -8.4390   14.7522   -8.9273 C   0  0  0  0  0  0  0  0  0  0  0  0
   -7.8252   13.4619   -8.9047 O   0  0  0  0  0  0  0  0  0  0  0  0
  -10.2842   19.3453   -9.0188 H   0  0  0  0  0  0  0  0  0  0  0  0
   -7.6680   16.5662  -10.4545 C   0  0  0  0  0  0  0  0  0  0  0  0
   -5.2679   14.8423  -11.5991 C   0  0  0  0  0  0  0  0  0  0  0  0
   -5.6240   16.2470  -12.0127 C   0  0  0  0  0  0  0  0  0  0  0  0
   -4.9977   16.9647  -12.9096 N   0  0  0  0  0  0  0  0  0  0  0  0
   -5.6378   18.2075  -13.0005 N   0  0  0  0  0  0  0  0  0  0  0  0
   -6.6675   18.2091  -12.1284 C   0  0  0  0  0  0  0  0  0  0  0  0
   -6.6848   17.0064  -11.5084 C   0  0  0  0  0  0  0  0  0  0  0  0
   -5.8940   17.1681  -12.0729 H   0  0  0  0  0  0  0  0  0  0  0  0
 20 21  1  0  0  0
 21 25  1  0  0  0
 21 22  2  0  0  0
 22 23  1  0  0  0
 23 24  1  0  0  0
 24 25  2  0  0  0
 25 19  1  0  0  0
 19  1  1  0  0  0
  1  6  1  0  0  0
  1  2  1  0  0  0
  2  3  1  0  0  0
  3  9  1  0  0  0
  3  4  1  0  0  0
  9 15  1  0  0  0
  9 10  2  0  0  0
 10 11  1  0  0  0
 11 12  2  0  0  0
 12 13  1  0  0  0
 12 14  1  0  0  0
 14 15  2  0  0  0
  4  5  1  0  0  0
  4  6  1  0  0  0
  6 16  1  0  0  0
 16 17  1  0  0  0
 23 26  1  0  0  0
  1  7  1  0  0  0
  5  8  1  0  0  0
 17 18  1  0  0  0
M  CHG 1   1   1
M  END
> <minimizedAffinity>
-7.74654

$$$$
ZINC000306133526


 27 30  0  0  0  0  0  0  0  0999 V2000
   -6.7754   16.9235   -9.0329 C   0  0  0  0  0  0  0  0  0  0  0  0
   -6.4778   18.4235   -9.1565 C   0  0  0  0  0  0  0  0  0  0  0  0
   -7.0327   18.8873  -10.4399 N   0  0  0  0  0  0  0  0  0  0  0  0
   -8.0599   19.7606  -10.6193 C   0  0  0  0  0  0  0  0  0  0  0  0
   -8.2724   19.8923  -11.9467 C   0  0  0  0  0  0  0  0  0  0  0  0
   -7.3326   19.0737  -12.6095 C   0  0  0  0  0  0  0  0  0  0  0  0
   -6.5869   18.4851  -11.6642 C   0  0  0  0  0  0  0  0  0  0  0  0
   -5.4159   17.5374  -11.8577 C   0  0  0  0  0  0  0  0  0  0  0  0
   -5.7902   16.2597  -11.2279 N   0  0  0  0  0  0  0  0  0  0  0  0
   -6.1776   15.2245  -11.9992 C   0  0  0  0  0  0  0  0  0  0  0  0
   -6.2840   15.3687  -13.2010 O   0  0  0  0  0  0  0  0  0  0  0  0
   -5.7450   16.1041   -9.7842 C   0  0  0  0  0  0  0  0  0  0  0  0
   -6.4735   13.9109  -11.3817 C   0  0  0  0  0  0  0  0  0  0  0  0
   -5.4851   12.9251  -11.2672 C   0  0  0  0  0  0  0  0  0  0  0  0
   -5.8374   11.7218  -10.6776 C   0  0  0  0  0  0  0  0  0  0  0  0
   -7.0697   11.5352  -10.2463 N   0  0  0  0  0  0  0  0  0  0  0  0
   -7.9794   12.4339  -10.3483 N   0  0  0  0  0  0  0  0  0  0  0  0
   -7.7471   13.6147  -10.8881 C   0  0  0  0  0  0  0  0  0  0  0  0
   -6.7547   16.5528   -7.6529 O   0  0  0  0  0  0  0  0  0  0  0  0
  -10.1287   17.2835   -5.4749 C   0  0  0  0  0  0  0  0  0  0  0  0
   -9.3994   18.3752   -5.9681 C   0  0  0  0  0  0  0  0  0  0  0  0
   -8.2592   18.1231   -6.7040 C   0  0  0  0  0  0  0  0  0  0  0  0
   -7.8735   16.8061   -6.9309 C   0  0  0  0  0  0  0  0  0  0  0  0
   -8.5830   15.7962   -6.4514 N   0  0  0  0  0  0  0  0  0  0  0  0
   -9.6738   15.9906   -5.7400 C   0  0  0  0  0  0  0  0  0  0  0  0
  -12.2626   17.6572   -4.0959 N   0  0  0  0  0  0  0  0  0  0  0  0
  -11.3186   17.4919   -4.7058 C   0  0  0  0  0  0  0  0  0  0  0  0
 26 27  3  0  0  0
 27 20  1  0  0  0
 20 25  2  0  0  0
 20 21  1  0  0  0
 21 22  2  0  0  0
 22 23  1  0  0  0
 23 19  1  0  0  0
 23 24  2  0  0  0
 19  1  1  0  0  0
  1 12  1  0  0  0
  1  2  1  0  0  0
  2  3  1  0  0  0
  3  7  1  0  0  0
  3  4  1  0  0  0
  4  5  2  0  0  0
  5  6  1  0  0  0
  6  7  2  0  0  0
  7  8  1  0  0  0
  8  9  1  0  0  0
  9 10  1  0  0  0
  9 12  1  0  0  0
 10 11  2  0  0  0
 10 13  1  0  0  0
 13 18  1  0  0  0
 13 14  2  0  0  0
 14 15  1  0  0  0
 15 16  2  0  0  0
 16 17  1  0  0  0
 17 18  2  0  0  0
 24 25  1  0  0  0
M  END
> <minimizedAffinity>
-8.41929

$$$$
ZINC000030689262


 30 31  0  0  0  0  0  0  0  0999 V2000
   -6.8141   17.7253  -10.4794 C   0  0  0  0  0  0  0  0  0  0  0  0
   -7.4533   18.6551  -11.1918 C   0  0  0  0  0  0  0  0  0  0  0  0
   -8.5007   19.5564  -10.0989 S   0  0  0  0  0  0  0  0  0  0  0  0
   -7.9768   18.5938   -8.7867 C   0  0  0  0  0  0  0  0  0  0  0  0
   -7.1183   17.7127   -9.1950 N   0  0  0  0  0  0  0  0  0  0  0  0
   -8.4128   18.7319   -7.4741 N   0  0  0  0  0  0  0  0  0  0  0  0
   -9.4103   17.9533   -7.0099 C   0  0  0  0  0  0  0  0  0  0  0  0
   -9.9273   17.1322   -7.7374 O   0  0  0  0  0  0  0  0  0  0  0  0
   -4.2726   21.8292  -14.0966 H   0  0  0  0  0  0  0  0  0  0  0  0
   -9.8830   18.1029   -5.5867 C   0  0  0  0  0  0  0  0  0  0  0  0
   -9.4127   19.4489   -5.0319 C   0  0  0  0  0  0  0  0  0  0  0  0
   -9.3298   17.0185   -4.7718 N   0  0  0  0  0  0  0  0  0  0  0  0
  -10.1552   16.1951   -4.0956 C   0  0  0  0  0  0  0  0  0  0  0  0
  -11.3561   16.3519   -4.1619 O   0  0  0  0  0  0  0  0  0  0  0  0
   -7.5932   23.1585  -14.9129 H   0  0  0  0  0  0  0  0  0  0  0  0
   -9.5861   15.0797   -3.2573 C   0  0  0  0  0  0  0  0  0  0  0  0
   -9.1104   15.6415   -1.9160 C   0  0  0  0  0  0  0  0  0  0  0  0
  -10.6654   14.0230   -3.0137 C   0  0  0  0  0  0  0  0  0  0  0  0
   -8.4045   14.4421   -3.9910 C   0  0  0  0  0  0  0  0  0  0  0  0
   -5.8296   16.7632  -11.0926 C   0  0  0  0  0  0  0  0  0  0  0  0
   -6.2595   14.2386  -11.0124 N   0  0  0  0  0  0  0  0  0  0  0  0
   -7.1077   13.3653  -11.5916 C   0  0  0  0  0  0  0  0  0  0  0  0
   -7.1604   11.6750  -11.3249 S   0  0  0  0  0  0  0  0  0  0  0  0
   -7.9078   14.0688  -12.4196 N   0  0  0  0  0  0  0  0  0  0  0  0
   -7.5211   15.4131  -12.3302 N   0  0  0  0  0  0  0  0  0  0  0  0
   -6.5439   15.4959  -11.4857 C   0  0  0  0  0  0  0  0  0  0  0  0
   -5.7854   13.9771   -8.6419 H   0  0  0  0  0  0  0  0  0  0  0  0
   -5.2165   13.9042  -10.0395 C   0  0  0  0  0  0  0  0  0  0  0  0
   -5.1877   14.8366   -7.7832 C   0  0  0  0  0  0  0  0  0  0  0  0
   -5.7694   14.0388   -8.6441 C   0  0  0  0  0  0  0  0  0  0  0  0
 29 30  2  0  0  0
 30 28  1  0  0  0
 28 21  1  0  0  0
 21 26  1  0  0  0
 21 22  1  0  0  0
 22 23  2  0  0  0
 22 24  1  0  0  0
 24 25  1  0  0  0
 25 26  2  0  0  0
 26 20  1  0  0  0
 20  1  1  0  0  0
  1  5  1  0  0  0
  1  2  2  0  0  0
  2  3  1  0  0  0
  3  4  1  0  0  0
  4  6  1  0  0  0
  4  5  2  0  0  0
  6  7  1  0  0  0
  7  8  2  0  0  0
  7 10  1  0  0  0
 10 11  1  0  0  0
 10 12  1  0  0  0
 12 13  1  0  0  0
 13 14  2  0  0  0
 13 16  1  0  0  0
 16 17  1  0  0  0
 16 18  1  0  0  0
 16 19  1  0  0  0
 24 27  1  0  0  0
  6  9  1  0  0  0
 12 15  1  0  0  0
M  END
> <minimizedAffinity>
-6.74767

$$$$
ZINC000040391731


 31 34  0  0  0  0  0  0  0  0999 V2000
   -7.3151   18.1519  -10.9585 C   0  0  0  0  0  0  0  0  0  0  0  0
   -7.7611   19.1855  -10.2876 N   0  0  0  0  0  0  0  0  0  0  0  0
   -8.1191   18.7784   -9.0008 N   0  0  0  0  0  0  0  0  0  0  0  0
   -7.8733   17.4287   -8.8986 C   0  0  0  0  0  0  0  0  0  0  0  0
   -7.3688   17.0200  -10.1350 C   0  0  0  0  0  0  0  0  0  0  0  0
   -8.1302   16.7771   -7.7575 N   0  0  0  0  0  0  0  0  0  0  0  0
   -8.6105   17.3723   -6.7215 N   0  0  0  0  0  0  0  0  0  0  0  0
   -8.8776   18.6851   -6.7395 C   0  0  0  0  0  0  0  0  0  0  0  0
   -8.6313   19.4301   -7.9053 C   0  0  0  0  0  0  0  0  0  0  0  0
   -8.9146   20.8038   -7.9104 C   0  0  0  0  0  0  0  0  0  0  0  0
   -9.4169   21.3969   -6.8064 C   0  0  0  0  0  0  0  0  0  0  0  0
   -9.6668   20.7056   -5.6627 N   0  0  0  0  0  0  0  0  0  0  0  0
   -9.4235   19.3811   -5.5736 C   0  0  0  0  0  0  0  0  0  0  0  0
   -9.6535   18.7761   -4.5410 O   0  0  0  0  0  0  0  0  0  0  0  0
   -6.9577   15.6451  -10.5046 C   0  0  0  0  0  0  0  0  0  0  0  0
   -5.6965   15.1715  -10.1443 C   0  0  0  0  0  0  0  0  0  0  0  0
   -5.3185   13.8905  -10.4902 C   0  0  0  0  0  0  0  0  0  0  0  0
   -6.1894   13.0752  -11.1948 C   0  0  0  0  0  0  0  0  0  0  0  0
   -5.8148   11.8215  -11.5313 F   0  0  0  0  0  0  0  0  0  0  0  0
   -7.4435   13.5413  -11.5550 C   0  0  0  0  0  0  0  0  0  0  0  0
   -7.8329   14.8187  -11.2087 C   0  0  0  0  0  0  0  0  0  0  0  0
   -5.3033   18.0736  -12.4062 C   0  0  0  0  0  0  0  0  0  0  0  0
   -6.8298   18.1758  -12.3850 C   0  0  0  0  0  0  0  0  0  0  0  0
  -10.2123   21.4137   -4.5022 C   0  0  0  0  0  0  0  0  0  0  0  0
  -11.3969   22.2413   -4.9299 C   0  0  0  0  0  0  0  0  0  0  0  0
  -12.4423   21.6952   -5.2391 O   0  0  0  0  0  0  0  0  0  0  0  0
  -11.3100   23.4568   -4.9667 O   0  0  0  0  0  0  0  0  0  0  0  0
   -2.9091   26.7555   -5.9805 H   0  0  0  0  0  0  0  0  0  0  0  0
   -9.1376   22.3286   -3.9114 C   0  0  0  0  0  0  0  0  0  0  0  0
   -9.0535   22.0818   -2.1162 S   0  0  0  0  0  0  0  0  0  0  0  0
   -6.9736   12.9063   -3.4107 H   0  0  0  0  0  0  0  0  0  0  0  0
 22 23  1  0  0  0
 23  1  1  0  0  0
  1  5  1  0  0  0
  1  2  2  0  0  0
  2  3  1  0  0  0
  3  9  1  0  0  0
  3  4  1  0  0  0
  4  5  2  0  0  0
  4  6  1  0  0  0
  5 15  1  0  0  0
 15 21  1  0  0  0
 15 16  2  0  0  0
 16 17  1  0  0  0
 17 18  2  0  0  0
 18 19  1  0  0  0
 18 20  1  0  0  0
 20 21  2  0  0  0
  6  7  2  0  0  0
  7  8  1  0  0  0
  8 13  1  0  0  0
  8  9  2  0  0  0
  9 10  1  0  0  0
 10 11  2  0  0  0
 11 12  1  0  0  0
 12 24  1  0  0  0
 12 13  1  0  0  0
 24 29  1  0  0  0
 24 25  1  0  0  0
 29 30  1  0  0  0
 25 26  2  0  0  0
 25 27  1  0  0  0
 13 14  2  0  0  0
 30 31  1  0  0  0
 27 28  1  0  0  0
M  END
> <minimizedAffinity>
-8.33197

$$$$
ZINC000003617713


 30 33  0  0  0  0  0  0  0  0999 V2000
   -9.7072   21.6169   -4.5686 C   0  0  0  0  0  0  0  0  0  0  0  0
   -9.9757   20.1768   -4.5520 N   0  0  0  0  0  0  0  0  0  0  0  0
   -9.6829   19.4052   -5.6651 C   0  0  0  0  0  0  0  0  0  0  0  0
   -9.9477   18.0406   -5.6227 C   0  0  0  0  0  0  0  0  0  0  0  0
  -10.5026   17.4847   -4.4565 C   0  0  0  0  0  0  0  0  0  0  0  0
  -10.7424   16.2913   -4.3970 O   0  0  0  0  0  0  0  0  0  0  0  0
  -10.7664   18.2863   -3.4039 N   0  0  0  0  0  0  0  0  0  0  0  0
  -11.3446   17.7118   -2.1867 C   0  0  0  0  0  0  0  0  0  0  0  0
  -10.5015   19.6032   -3.4533 C   0  0  0  0  0  0  0  0  0  0  0  0
  -10.7524   20.2954   -2.4854 O   0  0  0  0  0  0  0  0  0  0  0  0
   -9.5618   17.5291   -6.8546 N   0  0  0  0  0  0  0  0  0  0  0  0
   -9.0887   18.5754   -7.5819 C   0  0  0  0  0  0  0  0  0  0  0  0
   -9.1670   19.6778   -6.8646 N   0  0  0  0  0  0  0  0  0  0  0  0
   -8.6042   18.4958   -8.8674 N   0  0  0  0  0  0  0  0  0  0  0  0
   -7.1665   18.1969   -8.8704 C   0  0  0  0  0  0  0  0  0  0  0  0
   -6.6938   17.9723  -10.3084 C   0  0  0  0  0  0  0  0  0  0  0  0
   -6.9743   19.2303  -11.1351 C   0  0  0  0  0  0  0  0  0  0  0  0
   -8.4712   19.5472  -11.0759 C   0  0  0  0  0  0  0  0  0  0  0  0
   -8.8924   19.7260   -9.6155 C   0  0  0  0  0  0  0  0  0  0  0  0
   -9.6486   16.1321   -7.2871 C   0  0  0  0  0  0  0  0  0  0  0  0
   -8.3772   15.3895   -6.8712 C   0  0  0  0  0  0  0  0  0  0  0  0
   -7.6855   14.8984   -8.0656 N   0  0  0  0  0  0  0  0  0  0  0  0
   -8.3530   14.6605   -9.1474 C   0  0  0  0  0  0  0  0  0  0  0  0
  -10.1634   15.1382   -2.1291 H   0  0  0  0  0  0  0  0  0  0  0  0
   -7.7299   14.0874  -10.2246 N   0  0  0  0  0  0  0  0  0  0  0  0
   -6.8297   12.9359  -10.0547 C   0  0  0  0  0  0  0  0  0  0  0  0
   -7.2527   11.8418  -11.0416 C   0  0  0  0  0  0  0  0  0  0  0  0
   -7.3306   12.3981  -12.3562 O   0  0  0  0  0  0  0  0  0  0  0  0
   -8.3104   13.4296  -12.4980 C   0  0  0  0  0  0  0  0  0  0  0  0
   -7.9459   14.6014  -11.5864 C   0  0  0  0  0  0  0  0  0  0  0  0
  1  2  1  0  0  0
  2  9  1  0  0  0
  2  3  1  0  0  0
  3 13  1  0  0  0
  3  4  2  0  0  0
  4  5  1  0  0  0
  4 11  1  0  0  0
  5  6  2  0  0  0
  5  7  1  0  0  0
  7  8  1  0  0  0
  7  9  1  0  0  0
  9 10  2  0  0  0
 11 20  1  0  0  0
 11 12  1  0  0  0
 20 21  1  0  0  0
 21 22  1  0  0  0
 22 23  2  0  0  0
 23 25  1  0  0  0
 25 30  1  0  0  0
 25 26  1  0  0  0
 26 27  1  0  0  0
 27 28  1  0  0  0
 28 29  1  0  0  0
 29 30  1  0  0  0
 12 14  1  0  0  0
 12 13  2  0  0  0
 14 19  1  0  0  0
 14 15  1  0  0  0
 15 16  1  0  0  0
 16 17  1  0  0  0
 17 18  1  0  0  0
 18 19  1  0  0  0
 22 24  1  0  0  0
M  CHG 1  22   1
M  END
> <minimizedAffinity>
-7.85221

$$$$
ZINC000101662845


 22 24  0  0  0  0  0  0  0  0999 V2000
  -11.0877   22.0246   -6.5548 O   0  0  0  0  0  0  0  0  0  0  0  0
  -10.0663   21.4377   -6.2484 C   0  0  0  0  0  0  0  0  0  0  0  0
   -9.5372   21.6022   -5.0198 N   0  0  0  0  0  0  0  0  0  0  0  0
  -11.0832   22.0251   -6.5526 H   0  0  0  0  0  0  0  0  0  0  0  0
   -9.4236   20.5770   -7.1953 C   0  0  0  0  0  0  0  0  0  0  0  0
   -8.8966   19.8713   -7.9716 C   0  0  0  0  0  0  0  0  0  0  0  0
   -8.2539   19.0106   -8.9185 C   0  0  0  0  0  0  0  0  0  0  0  0
   -8.0816   19.4282  -10.2427 C   0  0  0  0  0  0  0  0  0  0  0  0
   -7.4626   18.5983  -11.1513 C   0  0  0  0  0  0  0  0  0  0  0  0
   -7.0082   17.3463  -10.7586 C   0  0  0  0  0  0  0  0  0  0  0  0
   -6.3766   16.3580  -11.4548 O   0  0  0  0  0  0  0  0  0  0  0  0
   -5.7941   15.4968  -10.4591 C   0  0  0  0  0  0  0  0  0  0  0  0
   -6.6488   15.6696   -9.3135 O   0  0  0  0  0  0  0  0  0  0  0  0
   -7.1765   16.9227   -9.4389 C   0  0  0  0  0  0  0  0  0  0  0  0
   -7.7907   17.7507   -8.5210 C   0  0  0  0  0  0  0  0  0  0  0  0
  -10.1914   22.4875   -4.0531 C   0  0  0  0  0  0  0  0  0  0  0  0
   -9.3734   23.7717   -3.9026 C   0  0  0  0  0  0  0  0  0  0  0  0
  -10.1439   24.9073   -4.4268 N   0  0  0  0  0  0  0  0  0  0  0  0
   -9.7819   26.1629   -3.7271 C   0  0  0  0  0  0  0  0  0  0  0  0
   -9.8670   27.2455   -4.7781 C   0  0  0  0  0  0  0  0  0  0  0  0
   -9.8621   26.6994   -5.9684 C   0  0  0  0  0  0  0  0  0  0  0  0
   -9.7735   25.1970   -5.8325 C   0  0  0  0  0  0  0  0  0  0  0  0
  1  2  2  0  0  0
  2  5  1  0  0  0
  2  3  1  0  0  0
  5  6  3  0  0  0
  6  7  1  0  0  0
  7 15  1  0  0  0
  7  8  2  0  0  0
  8  9  1  0  0  0
  9 10  2  0  0  0
 10 14  1  0  0  0
 10 11  1  0  0  0
 11 12  1  0  0  0
 12 13  1  0  0  0
 13 14  1  0  0  0
 14 15  2  0  0  0
  3 16  1  0  0  0
 16 17  1  0  0  0
 17 18  1  0  0  0
 18 22  1  0  0  0
 18 19  1  0  0  0
 19 20  1  0  0  0
 20 21  2  0  0  0
 21 22  1  0  0  0
  3  4  1  0  0  0
M  END
> <minimizedAffinity>
-6.72980

$$$$
ZINC000164693415


 26 27  0  0  0  0  0  0  0  0999 V2000
   -8.4659   17.6863   -7.0852 N   0  0  0  0  0  0  0  0  0  0  0  0
   -9.5520   17.2375   -6.4253 C   0  0  0  0  0  0  0  0  0  0  0  0
  -10.2510   16.3747   -6.9207 O   0  0  0  0  0  0  0  0  0  0  0  0
   -6.2134   15.7448  -10.1758 H   0  0  0  0  0  0  0  0  0  0  0  0
   -9.8929   17.7933   -5.1010 C   0  0  0  0  0  0  0  0  0  0  0  0
   -9.1373   18.8390   -4.5648 C   0  0  0  0  0  0  0  0  0  0  0  0
   -9.4588   19.3551   -3.3290 C   0  0  0  0  0  0  0  0  0  0  0  0
  -10.5332   18.8371   -2.6156 C   0  0  0  0  0  0  0  0  0  0  0  0
  -10.8469   19.3484   -1.3983 O   0  0  0  0  0  0  0  0  0  0  0  0
  -11.2877   17.7969   -3.1460 C   0  0  0  0  0  0  0  0  0  0  0  0
  -10.9757   17.2786   -4.3828 C   0  0  0  0  0  0  0  0  0  0  0  0
   -6.2220   15.8740  -10.2323 H   0  0  0  0  0  0  0  0  0  0  0  0
  -12.4315   17.2495   -2.3824 N   0  0  0  0  0  0  0  0  0  0  0  0
  -12.2442   16.3987   -1.5312 O   0  0  0  0  0  0  0  0  0  0  0  0
  -13.5599   17.6499   -2.6054 O   0  0  0  0  0  0  0  0  0  0  0  0
   -8.1276   17.1347   -8.3995 C   0  0  0  0  0  0  0  0  0  0  0  0
   -7.6539   17.7711  -10.7714 C   0  0  0  0  0  0  0  0  0  0  0  0
   -7.2736   18.8440  -11.6353 O   0  0  0  0  0  0  0  0  0  0  0  0
   -8.1593   19.9649  -11.5984 C   0  0  0  0  0  0  0  0  0  0  0  0
   -8.1871   20.5452  -10.1821 C   0  0  0  0  0  0  0  0  0  0  0  0
   -8.6192   19.4524   -9.1993 C   0  0  0  0  0  0  0  0  0  0  0  0
   -7.6616   18.2631   -9.3217 C   0  0  0  0  0  0  0  0  0  0  0  0
   -5.6147   16.9796  -11.9786 C   0  0  0  0  0  0  0  0  0  0  0  0
   -6.6545   16.6216  -10.9148 C   0  0  0  0  0  0  0  0  0  0  0  0
   -7.3958   15.3505  -11.3337 C   0  0  0  0  0  0  0  0  0  0  0  0
   -5.9535   16.3853   -9.5756 C   0  0  0  0  0  0  0  0  0  0  0  0
 23 24  1  0  0  0
 24 25  1  0  0  0
 24 26  1  0  0  0
 24 17  1  0  0  0
 17 22  1  0  0  0
 17 18  1  0  0  0
 18 19  1  0  0  0
 19 20  1  0  0  0
 20 21  1  0  0  0
 21 22  1  0  0  0
 22 16  1  0  0  0
 16  1  1  0  0  0
  1  2  1  0  0  0
  2  3  2  0  0  0
  2  5  1  0  0  0
  5 11  1  0  0  0
  5  6  2  0  0  0
  6  7  1  0  0  0
  7  8  2  0  0  0
  8  9  1  0  0  0
  8 10  1  0  0  0
 10 13  1  0  0  0
 10 11  2  0  0  0
 13 14  1  0  0  0
 13 15  2  0  0  0
  1  4  1  0  0  0
  9 12  1  0  0  0
M  CHG 1  13   1
M  CHG 1  14  -1
M  END
> <minimizedAffinity>
-8.00640

$$$$
CHEMBL3822973_8.68


 31 33  0  0  0  0  0  0  0  0999 V2000
   -8.6354   19.4656  -10.0296 C   0  0  0  0  0  0  0  0  0  0  0  0
   -8.7400   20.3344  -11.0426 N   0  0  0  0  0  0  0  0  0  0  0  0
   -8.0413   20.0678  -12.1585 C   0  0  0  0  0  0  0  0  0  0  0  0
   -7.2128   18.9821  -12.3054 C   0  0  0  0  0  0  0  0  0  0  0  0
   -6.5577   18.6769  -13.8677 Cl  0  0  0  0  0  0  0  0  0  0  0  0
   -7.0952   18.1606  -11.1915 C   0  0  0  0  0  0  0  0  0  0  0  0
   -7.8183   18.3966  -10.0682 N   0  0  0  0  0  0  0  0  0  0  0  0
   -9.4177   19.6044   -8.8847 N   0  0  0  0  0  0  0  0  0  0  0  0
   -9.3501   21.8692   -9.6228 H   0  0  0  0  0  0  0  0  0  0  0  0
   -9.1638   19.9085   -6.4834 C   0  0  0  0  0  0  0  0  0  0  0  0
   -8.9871   19.3856   -5.1961 C   0  0  0  0  0  0  0  0  0  0  0  0
   -8.9342   18.0054   -4.9979 C   0  0  0  0  0  0  0  0  0  0  0  0
   -9.0758   17.1436   -6.0788 C   0  0  0  0  0  0  0  0  0  0  0  0
   -9.2552   17.6590   -7.3640 C   0  0  0  0  0  0  0  0  0  0  0  0
   -9.2755   19.0409   -7.5966 C   0  0  0  0  0  0  0  0  0  0  0  0
  -10.2498   22.0078   -6.1569 C   0  0  0  0  0  0  0  0  0  0  0  0
   -9.2194   21.2522   -6.7816 O   0  0  0  0  0  0  0  0  0  0  0  0
   -6.2945   17.0117  -11.1322 N   0  0  0  0  0  0  0  0  0  0  0  0
   -6.9025   18.3697  -14.3275 H   0  0  0  0  0  0  0  0  0  0  0  0
   -6.0448   16.0608  -10.1281 C   0  0  0  0  0  0  0  0  0  0  0  0
   -6.0399   16.4320   -8.7724 C   0  0  0  0  0  0  0  0  0  0  0  0
   -5.6337   15.5480   -7.7677 C   0  0  0  0  0  0  0  0  0  0  0  0
   -5.2182   14.2643   -8.0967 C   0  0  0  0  0  0  0  0  0  0  0  0
   -5.2554   13.8498   -9.4243 C   0  0  0  0  0  0  0  0  0  0  0  0
   -5.7007   14.7299  -10.4269 C   0  0  0  0  0  0  0  0  0  0  0  0
   -5.8028   14.0799  -12.0844 S   0  0  0  0  0  0  0  0  0  0  0  0
   -5.8489   15.2002  -13.0104 O   0  0  0  0  0  0  0  0  0  0  0  0
   -4.7701   13.0651  -12.1894 O   0  0  0  0  0  0  0  0  0  0  0  0
   -7.4072   13.2674  -12.1693 C   0  0  0  0  0  0  0  0  0  0  0  0
   -7.3590   11.8500  -11.6052 C   0  0  0  0  0  0  0  0  0  0  0  0
   -8.4504   14.0994  -11.4254 C   0  0  0  0  0  0  0  0  0  0  0  0
 16 17  1  0  0  0
 17 10  1  0  0  0
 10 11  2  0  0  0
 10 15  1  0  0  0
 11 12  1  0  0  0
 12 13  2  0  0  0
 13 14  1  0  0  0
 14 15  2  0  0  0
 15  8  1  0  0  0
  8  1  1  0  0  0
  1  7  1  0  0  0
  1  2  2  0  0  0
  2  3  1  0  0  0
  3  4  2  0  0  0
  4  6  1  0  0  0
  4  5  1  0  0  0
  6  7  2  0  0  0
  6 18  1  0  0  0
 18 20  1  0  0  0
 20 21  2  0  0  0
 20 25  1  0  0  0
 21 22  1  0  0  0
 22 23  2  0  0  0
 23 24  1  0  0  0
 24 25  2  0  0  0
 25 26  1  0  0  0
 26 29  1  0  0  0
 26 28  2  0  0  0
 26 27  2  0  0  0
 29 31  1  0  0  0
 29 30  1  0  0  0
  8  9  1  0  0  0
 18 19  1  0  0  0
M  END
> <minimizedAffinity>
-8.89814

$$$$
ZINC000046949116


 26 27  0  0  0  0  0  0  0  0999 V2000
   -7.7741   15.9448   -7.3624 N   0  0  0  0  0  0  0  0  0  0  0  0
   -7.8804   14.7513   -7.9795 C   0  0  0  0  0  0  0  0  0  0  0  0
   -8.9580   14.3739   -8.3884 O   0  0  0  0  0  0  0  0  0  0  0  0
   -8.0783   17.6201   -5.4733 H   0  0  0  0  0  0  0  0  0  0  0  0
   -8.9602   16.7862   -7.1857 C   0  0  0  0  0  0  0  0  0  0  0  0
   -8.5270   18.2121   -6.8392 C   0  0  0  0  0  0  0  0  0  0  0  0
   -8.2071   18.9748   -8.1264 C   0  0  0  0  0  0  0  0  0  0  0  0
   -7.0093   18.3237   -8.8208 C   0  0  0  0  0  0  0  0  0  0  0  0
   -6.6894   19.0864  -10.1079 C   0  0  0  0  0  0  0  0  0  0  0  0
   -7.9026   19.0463  -11.0394 C   0  0  0  0  0  0  0  0  0  0  0  0
   -9.1003   19.6976  -10.3449 C   0  0  0  0  0  0  0  0  0  0  0  0
   -9.4202   18.9348   -9.0578 C   0  0  0  0  0  0  0  0  0  0  0  0
   -9.9648   18.1261   -4.9210 C   0  0  0  0  0  0  0  0  0  0  0  0
   -9.6135   18.8937   -6.1231 N   0  0  0  0  0  0  0  0  0  0  0  0
   -9.1738   20.2401   -5.7333 C   0  0  0  0  0  0  0  0  0  0  0  0
   -9.1487   18.9615   -6.4393 H   0  0  0  0  0  0  0  0  0  0  0  0
   -6.6602   13.8857   -8.1612 C   0  0  0  0  0  0  0  0  0  0  0  0
   -6.3106   13.8269   -9.5827 N   0  0  0  0  0  0  0  0  0  0  0  0
   -5.7059   14.9009  -10.1770 C   0  0  0  0  0  0  0  0  0  0  0  0
   -5.3833   14.8463  -11.4870 C   0  0  0  0  0  0  0  0  0  0  0  0
   -5.6794   13.6724  -12.2210 C   0  0  0  0  0  0  0  0  0  0  0  0
   -5.3976   13.5996  -13.4035 O   0  0  0  0  0  0  0  0  0  0  0  0
   -6.2760   12.6357  -11.5985 N   0  0  0  0  0  0  0  0  0  0  0  0
   -6.5821   12.7152  -10.2902 C   0  0  0  0  0  0  0  0  0  0  0  0
   -7.1195   11.7722   -9.7421 O   0  0  0  0  0  0  0  0  0  0  0  0
   -5.1070   14.0716   -3.6077 H   0  0  0  0  0  0  0  0  0  0  0  0
 13 14  1  0  0  0
 14 15  1  0  0  0
 14  6  1  0  0  0
  6  5  1  0  0  0
  6  7  1  0  0  0
  5  1  1  0  0  0
  1  2  1  0  0  0
  2  3  2  0  0  0
  2 17  1  0  0  0
 17 18  1  0  0  0
 18 24  1  0  0  0
 18 19  1  0  0  0
 19 20  2  0  0  0
 20 21  1  0  0  0
 21 22  2  0  0  0
 21 23  1  0  0  0
 23 24  1  0  0  0
 24 25  2  0  0  0
  7 12  1  0  0  0
  7  8  1  0  0  0
  8  9  1  0  0  0
  9 10  1  0  0  0
 10 11  1  0  0  0
 11 12  1  0  0  0
 14 16  1  0  0  0
  1  4  1  0  0  0
 23 26  1  0  0  0
M  CHG 1  14   1
M  END
> <minimizedAffinity>
-7.67352

$$$$
ZINC000102735687


 31 33  0  0  0  0  0  0  0  0999 V2000
   -8.8269   15.9795   -6.1250 C   0  0  0  0  0  0  0  0  0  0  0  0
   -9.6711   17.0006   -6.3978 C   0  0  0  0  0  0  0  0  0  0  0  0
  -10.9132   17.1500   -5.8823 O   0  0  0  0  0  0  0  0  0  0  0  0
   -9.0213   17.9275   -7.3482 C   0  0  0  0  0  0  0  0  0  0  0  0
   -9.5243   18.9431   -7.7861 O   0  0  0  0  0  0  0  0  0  0  0  0
   -7.7903   17.4805   -7.6565 N   0  0  0  0  0  0  0  0  0  0  0  0
   -7.5650   16.2335   -6.9161 C   0  0  0  0  0  0  0  0  0  0  0  0
   -6.2867   14.2123   -5.2961 H   0  0  0  0  0  0  0  0  0  0  0  0
   -7.3251   15.0969   -7.8761 C   0  0  0  0  0  0  0  0  0  0  0  0
   -8.3108   14.7293   -8.7721 C   0  0  0  0  0  0  0  0  0  0  0  0
   -8.0911   13.6865   -9.6530 C   0  0  0  0  0  0  0  0  0  0  0  0
   -6.8856   13.0104   -9.6383 C   0  0  0  0  0  0  0  0  0  0  0  0
   -5.8983   13.3760   -8.7427 C   0  0  0  0  0  0  0  0  0  0  0  0
   -6.1147   14.4242   -7.8647 C   0  0  0  0  0  0  0  0  0  0  0  0
   -5.1505   14.7825   -6.9889 F   0  0  0  0  0  0  0  0  0  0  0  0
   -9.0846   14.8470   -5.2288 C   0  0  0  0  0  0  0  0  0  0  0  0
   -9.7667   13.9133   -5.6087 O   0  0  0  0  0  0  0  0  0  0  0  0
  -10.2972   16.3381   -2.7020 C   0  0  0  0  0  0  0  0  0  0  0  0
   -9.0447   15.5005   -2.7350 C   0  0  0  0  0  0  0  0  0  0  0  0
   -8.2609   15.2538   -1.7222 N   0  0  0  0  0  0  0  0  0  0  0  0
   -7.2067   14.4399   -2.1516 N   0  0  0  0  0  0  0  0  0  0  0  0
   -6.1142   13.9410   -1.3128 C   0  0  0  0  0  0  0  0  0  0  0  0
   -7.3657   14.1927   -3.4618 C   0  0  0  0  0  0  0  0  0  0  0  0
   -6.4588   13.3578   -4.3288 C   0  0  0  0  0  0  0  0  0  0  0  0
   -8.5173   14.8399   -3.8675 C   0  0  0  0  0  0  0  0  0  0  0  0
   -6.8406   18.1274   -8.5652 C   0  0  0  0  0  0  0  0  0  0  0  0
   -7.3980   18.0996   -9.9897 C   0  0  0  0  0  0  0  0  0  0  0  0
   -6.2928   17.9461  -10.9452 N   0  0  0  0  0  0  0  0  0  0  0  0
   -5.8382   16.5493  -10.9478 C   0  0  0  0  0  0  0  0  0  0  0  0
   -6.7542   18.3134  -12.2906 C   0  0  0  0  0  0  0  0  0  0  0  0
  -12.8335   18.7766  -10.3779 H   0  0  0  0  0  0  0  0  0  0  0  0
 18 19  1  0  0  0
 19 25  1  0  0  0
 19 20  2  0  0  0
 20 21  1  0  0  0
 21 22  1  0  0  0
 21 23  1  0  0  0
 23 24  1  0  0  0
 23 25  2  0  0  0
 25 16  1  0  0  0
 16 17  2  0  0  0
 16  1  1  0  0  0
  1  7  1  0  0  0
  1  2  2  0  0  0
  2  3  1  0  0  0
  2  4  1  0  0  0
  4  5  2  0  0  0
  4  6  1  0  0  0
  6 26  1  0  0  0
  6  7  1  0  0  0
 26 27  1  0  0  0
 27 28  1  0  0  0
 28 29  1  0  0  0
 28 30  1  0  0  0
  7  9  1  0  0  0
  9 14  1  0  0  0
  9 10  2  0  0  0
 10 11  1  0  0  0
 11 12  2  0  0  0
 12 13  1  0  0  0
 13 14  2  0  0  0
 14 15  1  0  0  0
  3  8  1  0  0  0
 28 31  1  0  0  0
M  CHG 1  28   1
M  END
> <minimizedAffinity>
-5.94110

$$$$
ZINC000022023397


 27 27  0  0  0  0  0  0  0  0999 V2000
   -7.9321   16.2067   -9.2690 C   0  0  0  0  0  0  0  0  0  0  0  0
   -8.2977   15.1038   -8.5497 C   0  0  0  0  0  0  0  0  0  0  0  0
   -8.2663   14.0537   -9.3703 N   0  0  0  0  0  0  0  0  0  0  0  0
   -7.9003   14.4393  -10.5660 C   0  0  0  0  0  0  0  0  0  0  0  0
   -7.6869   15.7671  -10.5555 N   0  0  0  0  0  0  0  0  0  0  0  0
   -8.9418   18.3126   -8.5657 N   0  0  0  0  0  0  0  0  0  0  0  0
   -7.8269   17.5847   -8.7748 C   0  0  0  0  0  0  0  0  0  0  0  0
   -6.7332   18.0699   -8.5537 O   0  0  0  0  0  0  0  0  0  0  0  0
   -7.6273   20.8953   -5.9246 H   0  0  0  0  0  0  0  0  0  0  0  0
   -8.8350   19.7227   -8.1830 C   0  0  0  0  0  0  0  0  0  0  0  0
   -9.1990   19.8792   -6.7053 C   0  0  0  0  0  0  0  0  0  0  0  0
   -9.9362   21.1351   -6.5129 N   0  0  0  0  0  0  0  0  0  0  0  0
  -12.4449   19.6356   -7.6526 H   0  0  0  0  0  0  0  0  0  0  0  0
  -10.4556   19.9067   -4.4590 C   0  0  0  0  0  0  0  0  0  0  0  0
  -10.2809   21.2881   -5.0931 C   0  0  0  0  0  0  0  0  0  0  0  0
   -9.0986   22.2646   -6.9380 C   0  0  0  0  0  0  0  0  0  0  0  0
   -9.7630   23.5779   -6.5206 C   0  0  0  0  0  0  0  0  0  0  0  0
   -8.6634   15.0796   -7.1157 N   0  0  0  0  0  0  0  0  0  0  0  0
   -9.7867   15.3974   -6.7682 O   0  0  0  0  0  0  0  0  0  0  0  0
   -7.8410   14.7418   -6.2831 O   0  0  0  0  0  0  0  0  0  0  0  0
   -7.7481   13.5397  -11.7655 C   0  0  0  0  0  0  0  0  0  0  0  0
   -7.5005   12.1041  -11.2981 C   0  0  0  0  0  0  0  0  0  0  0  0
   -9.0259   13.5894  -12.6056 C   0  0  0  0  0  0  0  0  0  0  0  0
   -7.2648   16.5905  -11.6915 C   0  0  0  0  0  0  0  0  0  0  0  0
   -5.7690   16.8907  -11.5758 C   0  0  0  0  0  0  0  0  0  0  0  0
   -4.9696   15.6193  -11.8682 C   0  0  0  0  0  0  0  0  0  0  0  0
   -5.3873   17.9763  -12.5841 C   0  0  0  0  0  0  0  0  0  0  0  0
 14 15  1  0  0  0
 15 12  1  0  0  0
 12 16  1  0  0  0
 12 11  1  0  0  0
 16 17  1  0  0  0
 11 10  1  0  0  0
 10  6  1  0  0  0
  6  7  1  0  0  0
  7  8  2  0  0  0
  7  1  1  0  0  0
  1  5  1  0  0  0
  1  2  2  0  0  0
  2 18  1  0  0  0
  2  3  1  0  0  0
 18 19  1  0  0  0
 18 20  2  0  0  0
  3  4  2  0  0  0
  4 21  1  0  0  0
  4  5  1  0  0  0
 21 22  1  0  0  0
 21 23  1  0  0  0
  5 24  1  0  0  0
 24 25  1  0  0  0
 25 26  1  0  0  0
 25 27  1  0  0  0
 12 13  1  0  0  0
  6  9  1  0  0  0
M  CHG 1  12   1
M  CHG 1  18   1
M  CHG 1  19  -1
M  END
> <minimizedAffinity>
-6.64646

$$$$
ZINC000225948460


 29 30  0  0  0  0  0  0  0  0999 V2000
   -8.7239   17.9193   -5.7502 C   0  0  0  0  0  0  0  0  0  0  0  0
   -8.1774   15.8953   -7.0628 N   0  0  0  0  0  0  0  0  0  0  0  0
   -9.0384   16.9026   -6.8170 C   0  0  0  0  0  0  0  0  0  0  0  0
  -10.0666   16.9906   -7.4543 O   0  0  0  0  0  0  0  0  0  0  0  0
   -5.0197    9.9223   -9.8708 H   0  0  0  0  0  0  0  0  0  0  0  0
   -8.4831   14.9068   -8.0999 C   0  0  0  0  0  0  0  0  0  0  0  0
   -7.2433   14.6762   -8.9661 C   0  0  0  0  0  0  0  0  0  0  0  0
   -6.0644   16.0304   -8.7073 S   0  0  0  0  0  0  0  0  0  0  0  0
   -8.2478   20.4768  -10.4549 C   0  0  0  0  0  0  0  0  0  0  0  0
   -7.5684   19.1317  -10.4646 C   0  0  0  0  0  0  0  0  0  0  0  0
   -7.2489   18.4260   -9.4099 N   0  0  0  0  0  0  0  0  0  0  0  0
   -6.6605   17.2870   -9.7891 C   0  0  0  0  0  0  0  0  0  0  0  0
   -6.6005   17.2588  -11.0999 N   0  0  0  0  0  0  0  0  0  0  0  0
   -7.1913   18.4477  -11.5578 N   0  0  0  0  0  0  0  0  0  0  0  0
   -7.5685   19.1362  -10.4625 H   0  0  0  0  0  0  0  0  0  0  0  0
   -9.9908   18.7042   -5.4042 C   0  0  0  0  0  0  0  0  0  0  0  0
   -9.7358   20.1777   -5.5912 C   0  0  0  0  0  0  0  0  0  0  0  0
   -9.4064   20.6688   -6.8408 C   0  0  0  0  0  0  0  0  0  0  0  0
   -9.1724   22.0200   -7.0129 C   0  0  0  0  0  0  0  0  0  0  0  0
   -9.2679   22.8813   -5.9343 C   0  0  0  0  0  0  0  0  0  0  0  0
   -8.9748   24.5787   -6.1500 Cl  0  0  0  0  0  0  0  0  0  0  0  0
   -9.5977   22.3893   -4.6840 C   0  0  0  0  0  0  0  0  0  0  0  0
   -9.8370   21.0385   -4.5143 C   0  0  0  0  0  0  0  0  0  0  0  0
  -10.3602   18.4457   -4.0104 N   0  0  0  0  0  0  0  0  0  0  0  0
    0.6297   15.7453   -4.4695 H   0  0  0  0  0  0  0  0  0  0  0  0
  -11.5463   17.3450   -3.6585 S   0  0  0  0  0  0  0  0  0  0  0  0
  -10.6452   15.8628   -3.1275 C   0  0  0  0  0  0  0  0  0  0  0  0
  -12.2463   17.9217   -2.5646 O   0  0  0  0  0  0  0  0  0  0  0  0
  -12.1926   17.1163   -4.9032 O   0  0  0  0  0  0  0  0  0  0  0  0
  9 10  1  0  0  0
 10 14  1  0  0  0
 10 11  2  0  0  0
 11 12  1  0  0  0
 12  8  1  0  0  0
 12 13  2  0  0  0
  8  7  1  0  0  0
  7  6  1  0  0  0
  6  2  1  0  0  0
  2  3  1  0  0  0
  3  4  2  0  0  0
  3  1  1  0  0  0
  1 16  1  0  0  0
 16 24  1  0  0  0
 16 17  1  0  0  0
 24 26  1  0  0  0
 26 27  1  0  0  0
 26 28  2  0  0  0
 26 29  2  0  0  0
 17 23  1  0  0  0
 17 18  2  0  0  0
 18 19  1  0  0  0
 19 20  2  0  0  0
 20 21  1  0  0  0
 20 22  1  0  0  0
 22 23  2  0  0  0
 13 14  1  0  0  0
  2  5  1  0  0  0
 24 25  1  0  0  0
 14 15  1  0  0  0
M  END
> <minimizedAffinity>
-7.13334

$$$$
ZINC000015675160


 39 40  0  0  0  0  0  0  0  0999 V2000
   -6.2904   15.0130   -7.9962 N   0  0  0  0  0  0  0  0  0  0  0  0
   -1.1053   18.9945  -11.1364 H   0  0  0  0  0  0  0  0  0  0  0  0
   -1.1053   18.9945  -11.1364 H   0  0  0  0  0  0  0  0  0  0  0  0
   -5.6714   13.8562   -8.6570 C   0  0  0  0  0  0  0  0  0  0  0  0
   -8.0670   13.2717  -11.3588 C   0  0  0  0  0  0  0  0  0  0  0  0
   -7.4836   14.0348  -10.2896 O   0  0  0  0  0  0  0  0  0  0  0  0
   -6.7273   13.1119   -9.4767 C   0  0  0  0  0  0  0  0  0  0  0  0
   -6.0574   12.1789  -10.5174 C   0  0  0  0  0  0  0  0  0  0  0  0
   -5.7509   10.9080   -9.9402 O   0  0  0  0  0  0  0  0  0  0  0  0
   -7.1661   12.0438  -11.5941 C   0  0  0  0  0  0  0  0  0  0  0  0
   -7.9009   10.8327  -11.4062 O   0  0  0  0  0  0  0  0  0  0  0  0
  -10.2652   17.2421  -13.2212 H   0  0  0  0  0  0  0  0  0  0  0  0
  -10.2652   17.2421  -13.2212 H   0  0  0  0  0  0  0  0  0  0  0  0
   -8.1308   14.1213  -12.6297 C   0  0  0  0  0  0  0  0  0  0  0  0
   -7.3897   16.4466  -12.2269 N   0  0  0  0  0  0  0  0  0  0  0  0
   -7.0656   15.1859  -12.5762 C   0  0  0  0  0  0  0  0  0  0  0  0
   -5.9166   14.9082  -12.8476 O   0  0  0  0  0  0  0  0  0  0  0  0
   -6.3536   17.4805  -12.1798 H   0  0  0  0  0  0  0  0  0  0  0  0
   -6.5447   18.4527  -13.3418 C   0  0  0  0  0  0  0  0  0  0  0  0
   -6.3541   17.4815  -12.1749 C   0  0  0  0  0  0  0  0  0  0  0  0
   -6.4617   18.2448  -10.8533 C   0  0  0  0  0  0  0  0  0  0  0  0
   -6.4659   14.7242   -6.5666 C   0  0  0  0  0  0  0  0  0  0  0  0
   -7.5860   15.6008   -6.0029 C   0  0  0  0  0  0  0  0  0  0  0  0
   -7.3770   16.9818   -6.3706 O   0  0  0  0  0  0  0  0  0  0  0  0
   -8.6713   17.6097   -6.2423 C   0  0  0  0  0  0  0  0  0  0  0  0
   -9.6699   16.5742   -6.8053 C   0  0  0  0  0  0  0  0  0  0  0  0
  -10.8821   16.5848   -6.0486 O   0  0  0  0  0  0  0  0  0  0  0  0
   -8.9400   15.2202   -6.6419 C   0  0  0  0  0  0  0  0  0  0  0  0
   -9.6809   14.3526   -5.7814 O   0  0  0  0  0  0  0  0  0  0  0  0
   -2.9853   12.8610    0.6632 H   0  0  0  0  0  0  0  0  0  0  0  0
   -2.9853   12.8610    0.6632 H   0  0  0  0  0  0  0  0  0  0  0  0
   -8.7204   18.9007   -7.0620 C   0  0  0  0  0  0  0  0  0  0  0  0
   -9.0251   20.0624   -6.1516 C   0  0  0  0  0  0  0  0  0  0  0  0
   -9.0569   19.8992   -4.9503 O   0  0  0  0  0  0  0  0  0  0  0  0
   -9.2620   21.2826   -6.6725 N   0  0  0  0  0  0  0  0  0  0  0  0
   -6.5846   14.7378    3.2896 H   0  0  0  0  0  0  0  0  0  0  0  0
   -9.5581   22.4120   -5.7875 C   0  0  0  0  0  0  0  0  0  0  0  0
   -8.9132   23.6814   -6.3476 C   0  0  0  0  0  0  0  0  0  0  0  0
  -11.0731   22.6064   -5.6982 C   0  0  0  0  0  0  0  0  0  0  0  0
 19 20  1  0  0  0
 20 21  1  0  0  0
 20 15  1  0  0  0
 15 16  1  0  0  0
 16 17  2  0  0  0
 16 14  1  0  0  0
 14  5  1  0  0  0
  5 10  1  0  0  0
  5  6  1  0  0  0
  6  7  1  0  0  0
  7  4  1  0  0  0
  7  8  1  0  0  0
  4  1  1  0  0  0
  1 22  1  0  0  0
 22 23  1  0  0  0
 23 28  1  0  0  0
 23 24  1  0  0  0
 24 25  1  0  0  0
 25 32  1  0  0  0
 25 26  1  0  0  0
 32 33  1  0  0  0
 33 34  2  0  0  0
 33 35  1  0  0  0
 35 37  1  0  0  0
 37 38  1  0  0  0
 37 39  1  0  0  0
 26 27  1  0  0  0
 26 28  1  0  0  0
 28 29  1  0  0  0
  8  9  1  0  0  0
  8 10  1  0  0  0
 10 11  1  0  0  0
 15 18  1  0  0  0
  1  2  1  0  0  0
  1  3  1  0  0  0
 35 36  1  0  0  0
 27 30  1  0  0  0
 29 31  1  0  0  0
  9 12  1  0  0  0
 11 13  1  0  0  0
M  CHG 1   1   1
M  END
> <minimizedAffinity>
-8.27742

$$$$
ZINC000006041094


 26 28  0  0  0  0  0  0  0  0999 V2000
   -8.6478   19.3776   -8.9611 C   0  0  0  0  0  0  0  0  0  0  0  0
   -8.7405   20.0585  -10.1658 C   0  0  0  0  0  0  0  0  0  0  0  0
   -8.0588   19.5986  -11.2777 C   0  0  0  0  0  0  0  0  0  0  0  0
   -7.2824   18.4559  -11.1871 C   0  0  0  0  0  0  0  0  0  0  0  0
   -7.1885   17.7694   -9.9770 C   0  0  0  0  0  0  0  0  0  0  0  0
   -7.8664   18.2348   -8.8649 C   0  0  0  0  0  0  0  0  0  0  0  0
   -6.4255   16.6459   -9.9036 O   0  0  0  0  0  0  0  0  0  0  0  0
   -6.3612   15.8372  -11.0813 C   0  0  0  0  0  0  0  0  0  0  0  0
   -5.3046   14.8849  -10.9476 O   0  0  0  0  0  0  0  0  0  0  0  0
   -5.4395   14.0189   -9.8187 C   0  0  0  0  0  0  0  0  0  0  0  0
   -6.7324   13.2097   -9.9495 C   0  0  0  0  0  0  0  0  0  0  0  0
   -6.8982   12.3847   -8.7943 O   0  0  0  0  0  0  0  0  0  0  0  0
   -7.9187   14.1714  -10.0674 C   0  0  0  0  0  0  0  0  0  0  0  0
   -8.0266   14.9464   -8.8717 O   0  0  0  0  0  0  0  0  0  0  0  0
   -7.6909   15.1007  -11.2639 C   0  0  0  0  0  0  0  0  0  0  0  0
   -7.6502   14.3297  -12.4664 O   0  0  0  0  0  0  0  0  0  0  0  0
   -6.1037   16.7110  -12.2821 C   0  0  0  0  0  0  0  0  0  0  0  0
   -5.4702   16.2820  -13.2235 O   0  0  0  0  0  0  0  0  0  0  0  0
   -6.5822   17.9743  -12.3050 N   0  0  0  0  0  0  0  0  0  0  0  0
   -6.3814   18.7994  -13.4382 O   0  0  0  0  0  0  0  0  0  0  0  0
   -9.3237   19.8358   -7.8724 H   0  0  0  0  0  0  0  0  0  0  0  0
   -9.3237   19.8358   -7.8724 H   0  0  0  0  0  0  0  0  0  0  0  0
   -9.3237   19.8358   -7.8724 H   0  0  0  0  0  0  0  0  0  0  0  0
   -9.3237   19.8358   -7.8724 H   0  0  0  0  0  0  0  0  0  0  0  0
   -8.9394   19.2959   -6.6024 C   0  0  0  0  0  0  0  0  0  0  0  0
   -9.3195   19.8340   -7.8705 O   0  0  0  0  0  0  0  0  0  0  0  0
 25 26  1  0  0  0
 26  1  1  0  0  0
  1  6  2  0  0  0
  1  2  1  0  0  0
  2  3  2  0  0  0
  3  4  1  0  0  0
  4 19  1  0  0  0
  4  5  2  0  0  0
  5  6  1  0  0  0
  5  7  1  0  0  0
  8  7  1  0  0  0
  8 15  1  0  0  0
  8  9  1  0  0  0
  8 17  1  0  0  0
  9 10  1  0  0  0
 10 11  1  0  0  0
 11 12  1  0  0  0
 11 13  1  0  0  0
 13 14  1  0  0  0
 13 15  1  0  0  0
 15 16  1  0  0  0
 17 18  2  0  0  0
 17 19  1  0  0  0
 19 20  1  0  0  0
 12 21  1  0  0  0
 14 22  1  0  0  0
 16 23  1  0  0  0
 20 24  1  0  0  0
M  END
> <minimizedAffinity>
-9.10941

$$$$
ZINC000004114212


 25 26  0  0  0  0  0  0  0  0999 V2000
   -6.8057   14.8624  -10.5046 C   0  0  0  0  0  0  0  0  0  0  0  0
   -7.1033   13.9366   -9.5434 C   0  0  0  0  0  0  0  0  0  0  0  0
   -6.6342   12.6223   -9.6943 C   0  0  0  0  0  0  0  0  0  0  0  0
   -6.8877   11.7801   -8.8501 O   0  0  0  0  0  0  0  0  0  0  0  0
   -5.9025   12.2970  -10.7781 N   0  0  0  0  0  0  0  0  0  0  0  0
   -5.4117   10.9260  -10.9381 C   0  0  0  0  0  0  0  0  0  0  0  0
   -5.6193   13.2205  -11.7147 C   0  0  0  0  0  0  0  0  0  0  0  0
   -4.9581   12.9056  -12.6853 O   0  0  0  0  0  0  0  0  0  0  0  0
   -6.0615   14.4860  -11.5962 N   0  0  0  0  0  0  0  0  0  0  0  0
   -5.3323   19.7262   -8.3760 H   0  0  0  0  0  0  0  0  0  0  0  0
   -7.9092   14.3151   -8.3607 N   0  0  0  0  0  0  0  0  0  0  0  0
   -9.1224   14.2133   -8.3925 O   0  0  0  0  0  0  0  0  0  0  0  0
   -7.3588   14.7284   -7.3559 O   0  0  0  0  0  0  0  0  0  0  0  0
   -7.2510   16.1538  -10.3828 N   0  0  0  0  0  0  0  0  0  0  0  0
   -7.2344   18.9222   -6.8042 H   0  0  0  0  0  0  0  0  0  0  0  0
   -6.3190   17.2698  -10.5621 C   0  0  0  0  0  0  0  0  0  0  0  0
   -7.4785   19.2752  -11.5228 C   0  0  0  0  0  0  0  0  0  0  0  0
   -7.8819   20.0446  -12.6042 C   0  0  0  0  0  0  0  0  0  0  0  0
   -7.5708   19.6444  -13.8895 C   0  0  0  0  0  0  0  0  0  0  0  0
   -6.8586   18.4781  -14.0983 C   0  0  0  0  0  0  0  0  0  0  0  0
   -6.4556   17.7090  -13.0219 C   0  0  0  0  0  0  0  0  0  0  0  0
   -6.7588   18.1080  -11.7347 C   0  0  0  0  0  0  0  0  0  0  0  0
   -7.7828   19.6670  -10.2576 O   0  0  0  0  0  0  0  0  0  0  0  0
   -9.2862   18.8145   -8.5684 C   0  0  0  0  0  0  0  0  0  0  0  0
   -9.1574   19.6049   -9.8721 C   0  0  0  0  0  0  0  0  0  0  0  0
 24 25  1  0  0  0
 25 23  1  0  0  0
 23 17  1  0  0  0
 17 22  2  0  0  0
 17 18  1  0  0  0
 18 19  2  0  0  0
 19 20  1  0  0  0
 20 21  2  0  0  0
 21 22  1  0  0  0
 22 16  1  0  0  0
 16 14  1  0  0  0
 14  1  1  0  0  0
  1  9  1  0  0  0
  1  2  2  0  0  0
  2 11  1  0  0  0
  2  3  1  0  0  0
 11 12  1  0  0  0
 11 13  2  0  0  0
  3  4  2  0  0  0
  3  5  1  0  0  0
  5  6  1  0  0  0
  5  7  1  0  0  0
  7  8  2  0  0  0
  7  9  1  0  0  0
 14 15  1  0  0  0
  9 10  1  0  0  0
M  CHG 1  11   1
M  CHG 1  12  -1
M  END
> <minimizedAffinity>
-7.86875

$$$$
ZINC000102933803


 29 32  0  0  0  0  0  0  0  0999 V2000
   -6.4036   15.5388   -8.4174 C   0  0  0  0  0  0  0  0  0  0  0  0
   -6.1324   14.1883   -8.2878 C   0  0  0  0  0  0  0  0  0  0  0  0
   -5.6269   13.4779   -9.3636 C   0  0  0  0  0  0  0  0  0  0  0  0
   -5.3835   14.1035  -10.5649 C   0  0  0  0  0  0  0  0  0  0  0  0
   -5.6468   15.4680  -10.7268 C   0  0  0  0  0  0  0  0  0  0  0  0
   -6.1759   16.1876   -9.6496 C   0  0  0  0  0  0  0  0  0  0  0  0
   -6.4998   17.6081   -9.7701 C   0  0  0  0  0  0  0  0  0  0  0  0
   -6.5182   18.3072   -8.7725 O   0  0  0  0  0  0  0  0  0  0  0  0
   -6.8025   18.2029  -11.0761 C   0  0  0  0  0  0  0  0  0  0  0  0
   -7.5994   19.3564  -11.1263 C   0  0  0  0  0  0  0  0  0  0  0  0
   -7.9075   19.9303  -12.3366 C   0  0  0  0  0  0  0  0  0  0  0  0
   -7.4319   19.3691  -13.5134 C   0  0  0  0  0  0  0  0  0  0  0  0
   -6.6473   18.2410  -13.4806 C   0  0  0  0  0  0  0  0  0  0  0  0
   -6.3156   17.6406  -12.2602 C   0  0  0  0  0  0  0  0  0  0  0  0
   -5.3054   16.2098  -12.2798 S   0  0  0  0  0  0  0  0  0  0  0  0
   -4.8277   13.3099  -11.7191 C   0  0  0  0  0  0  0  0  0  0  0  0
   -5.6722   12.1860  -11.9751 O   0  0  0  0  0  0  0  0  0  0  0  0
  -11.6101   15.6645   -2.8866 H   0  0  0  0  0  0  0  0  0  0  0  0
   -6.9049   16.2543   -7.3369 N   0  0  0  0  0  0  0  0  0  0  0  0
  -11.6777   15.8459   -2.9693 H   0  0  0  0  0  0  0  0  0  0  0  0
   -8.0905   15.7708   -6.6249 C   0  0  0  0  0  0  0  0  0  0  0  0
   -9.3134   16.5793   -7.0630 C   0  0  0  0  0  0  0  0  0  0  0  0
   -9.5894   22.1449   -6.1401 C   0  0  0  0  0  0  0  0  0  0  0  0
   -9.8311   20.7176   -6.3899 N   0  0  0  0  0  0  0  0  0  0  0  0
   -9.3308   19.8964   -5.2786 C   0  0  0  0  0  0  0  0  0  0  0  0
   -9.6719   18.4274   -5.5395 C   0  0  0  0  0  0  0  0  0  0  0  0
   -9.0717   18.0066   -6.8133 N   0  0  0  0  0  0  0  0  0  0  0  0
   -9.5720   18.8278   -7.9245 C   0  0  0  0  0  0  0  0  0  0  0  0
   -9.2309   20.2968   -7.6636 C   0  0  0  0  0  0  0  0  0  0  0  0
 23 24  1  0  0  0
 24 29  1  0  0  0
 24 25  1  0  0  0
 25 26  1  0  0  0
 26 27  1  0  0  0
 27 22  1  0  0  0
 27 28  1  0  0  0
 22 21  1  0  0  0
 21 19  1  0  0  0
 19  1  1  0  0  0
  1  6  1  0  0  0
  1  2  2  0  0  0
  2  3  1  0  0  0
  3  4  2  0  0  0
  4 16  1  0  0  0
  4  5  1  0  0  0
 16 17  1  0  0  0
  5 15  1  0  0  0
  5  6  2  0  0  0
  6  7  1  0  0  0
  7  8  2  0  0  0
  7  9  1  0  0  0
  9 14  2  0  0  0
  9 10  1  0  0  0
 10 11  2  0  0  0
 11 12  1  0  0  0
 12 13  2  0  0  0
 13 14  1  0  0  0
 14 15  1  0  0  0
 28 29  1  0  0  0
 19 20  1  0  0  0
 17 18  1  0  0  0
M  END
> <minimizedAffinity>
-8.18224

$$$$
ZINC000248099613


 32 35  0  0  0  0  0  0  0  0999 V2000
   -5.4396   17.2621  -12.9894 C   0  0  0  0  0  0  0  0  0  0  0  0
   -5.8540   17.7992  -11.6864 N   0  0  0  0  0  0  0  0  0  0  0  0
   -7.0823   18.5870  -11.8512 C   0  0  0  0  0  0  0  0  0  0  0  0
   -7.5119   19.1607  -10.4981 C   0  0  0  0  0  0  0  0  0  0  0  0
   -7.7302   18.0566   -9.5550 N   0  0  0  0  0  0  0  0  0  0  0  0
   -8.2563   18.5000   -8.3456 C   0  0  0  0  0  0  0  0  0  0  0  0
   -9.1131   19.6011   -8.3710 C   0  0  0  0  0  0  0  0  0  0  0  0
   -9.6695   20.0800   -7.2043 C   0  0  0  0  0  0  0  0  0  0  0  0
   -9.3797   19.4670   -5.9992 C   0  0  0  0  0  0  0  0  0  0  0  0
   -8.5307   18.3785   -5.9672 C   0  0  0  0  0  0  0  0  0  0  0  0
   -7.9641   17.8935   -7.1351 C   0  0  0  0  0  0  0  0  0  0  0  0
   -7.0308   16.7133   -7.0355 C   0  0  0  0  0  0  0  0  0  0  0  0
   -6.8087   16.1073   -8.4234 C   0  0  0  0  0  0  0  0  0  0  0  0
   -6.5158   17.2537   -9.3965 C   0  0  0  0  0  0  0  0  0  0  0  0
   -6.0991   16.6886  -10.7555 C   0  0  0  0  0  0  0  0  0  0  0  0
   -5.8519   17.8003  -11.6908 H   0  0  0  0  0  0  0  0  0  0  0  0
   -8.0471   15.3689   -8.8616 C   0  0  0  0  0  0  0  0  0  0  0  0
   -9.0045   15.2973   -8.1206 O   0  0  0  0  0  0  0  0  0  0  0  0
   -8.0907   14.7880  -10.0770 N   0  0  0  0  0  0  0  0  0  0  0  0
   -8.2535   18.2212   -5.6124 H   0  0  0  0  0  0  0  0  0  0  0  0
   -9.2946   14.0700  -10.5030 C   0  0  0  0  0  0  0  0  0  0  0  0
   -9.3919   14.0983  -12.0296 C   0  0  0  0  0  0  0  0  0  0  0  0
   -8.6313   12.9048  -12.6112 C   0  0  0  0  0  0  0  0  0  0  0  0
   -7.3476   12.7550  -11.9130 N   0  0  0  0  0  0  0  0  0  0  0  0
   -6.2691   13.4398  -12.6404 C   0  0  0  0  0  0  0  0  0  0  0  0
   -4.9646   13.3094  -11.8497 C   0  0  0  0  0  0  0  0  0  0  0  0
   -4.6790   11.9246  -11.6359 O   0  0  0  0  0  0  0  0  0  0  0  0
   -5.7084   11.2268  -10.9294 C   0  0  0  0  0  0  0  0  0  0  0  0
   -7.0204   11.3361  -11.7108 C   0  0  0  0  0  0  0  0  0  0  0  0
   -9.9781   19.9773   -4.7453 N   0  0  0  0  0  0  0  0  0  0  0  0
  -10.9572   19.4297   -4.2710 O   0  0  0  0  0  0  0  0  0  0  0  0
   -9.4914   20.9448   -4.1880 O   0  0  0  0  0  0  0  0  0  0  0  0
  1  2  1  0  0  0
  2 15  1  0  0  0
  2  3  1  0  0  0
  3  4  1  0  0  0
  4  5  1  0  0  0
  5 14  1  0  0  0
  5  6  1  0  0  0
  6 11  2  0  0  0
  6  7  1  0  0  0
  7  8  2  0  0  0
  8  9  1  0  0  0
  9 30  1  0  0  0
  9 10  2  0  0  0
 30 31  1  0  0  0
 30 32  2  0  0  0
 10 11  1  0  0  0
 11 12  1  0  0  0
 12 13  1  0  0  0
 13 17  1  0  0  0
 13 14  1  0  0  0
 17 18  2  0  0  0
 17 19  1  0  0  0
 19 21  1  0  0  0
 21 22  1  0  0  0
 22 23  1  0  0  0
 23 24  1  0  0  0
 24 29  1  0  0  0
 24 25  1  0  0  0
 25 26  1  0  0  0
 26 27  1  0  0  0
 27 28  1  0  0  0
 28 29  1  0  0  0
 14 15  1  0  0  0
  2 16  1  0  0  0
 19 20  1  0  0  0
M  CHG 1   2   1
M  CHG 1  30   1
M  CHG 1  31  -1
M  END
> <minimizedAffinity>
-8.06738

$$$$
ZINC000020548108


 31 34  0  0  0  0  0  0  0  0999 V2000
   -9.9498   17.5381   -3.4945 C   0  0  0  0  0  0  0  0  0  0  0  0
  -10.1378   18.3856   -2.6476 O   0  0  0  0  0  0  0  0  0  0  0  0
   -9.3160   17.8590   -4.6399 N   0  0  0  0  0  0  0  0  0  0  0  0
   -9.1741   16.8775   -5.7264 C   0  0  0  0  0  0  0  0  0  0  0  0
   -9.6437   17.5272   -7.0322 C   0  0  0  0  0  0  0  0  0  0  0  0
   -8.9078   18.7795   -7.2470 N   0  0  0  0  0  0  0  0  0  0  0  0
   -9.2366   19.7409   -6.1868 C   0  0  0  0  0  0  0  0  0  0  0  0
   -8.7518   19.2026   -4.8414 C   0  0  0  0  0  0  0  0  0  0  0  0
  -10.4234   16.1217   -3.2658 H   0  0  0  0  0  0  0  0  0  0  0  0
  -11.4525   16.1111   -2.1328 C   0  0  0  0  0  0  0  0  0  0  0  0
  -10.4247   16.1262   -3.2661 C   0  0  0  0  0  0  0  0  0  0  0  0
   -9.2850   15.2803   -2.9032 N   0  0  0  0  0  0  0  0  0  0  0  0
   -9.0583   14.1506   -3.5915 C   0  0  0  0  0  0  0  0  0  0  0  0
   -9.8116   13.8625   -4.5012 O   0  0  0  0  0  0  0  0  0  0  0  0
   -8.0341   13.3242   -3.3183 N   0  0  0  0  0  0  0  0  0  0  0  0
   -7.1488   13.6115   -2.2895 C   0  0  0  0  0  0  0  0  0  0  0  0
   -6.0856   12.7737   -1.9910 C   0  0  0  0  0  0  0  0  0  0  0  0
   -5.2271   13.0969   -0.9587 C   0  0  0  0  0  0  0  0  0  0  0  0
   -5.4176   14.2522   -0.2167 C   0  0  0  0  0  0  0  0  0  0  0  0
   -6.4703   15.0978   -0.4989 C   0  0  0  0  0  0  0  0  0  0  0  0
   -7.3429   14.7836   -1.5375 C   0  0  0  0  0  0  0  0  0  0  0  0
   -8.4793   15.6551   -1.8859 C   0  0  0  0  0  0  0  0  0  0  0  0
   -8.6887   16.6829   -1.2707 O   0  0  0  0  0  0  0  0  0  0  0  0
  -10.4218   16.1295   -3.2642 H   0  0  0  0  0  0  0  0  0  0  0  0
   -9.2797   19.3467   -8.5500 C   0  0  0  0  0  0  0  0  0  0  0  0
   -8.2806   18.9116   -9.5909 C   0  0  0  0  0  0  0  0  0  0  0  0
   -8.3137   19.4679  -10.8558 C   0  0  0  0  0  0  0  0  0  0  0  0
   -7.3972   19.0688  -11.8107 C   0  0  0  0  0  0  0  0  0  0  0  0
   -6.4474   18.1136  -11.5004 C   0  0  0  0  0  0  0  0  0  0  0  0
   -6.4138   17.5578  -10.2351 C   0  0  0  0  0  0  0  0  0  0  0  0
   -7.3276   17.9601   -9.2790 C   0  0  0  0  0  0  0  0  0  0  0  0
 10 11  1  0  0  0
 11  1  1  0  0  0
 11 12  1  0  0  0
  1  2  2  0  0  0
  1  3  1  0  0  0
  3  8  1  0  0  0
  3  4  1  0  0  0
  4  5  1  0  0  0
  5  6  1  0  0  0
  6 25  1  0  0  0
  6  7  1  0  0  0
 25 26  1  0  0  0
 26 31  1  0  0  0
 26 27  2  0  0  0
 27 28  1  0  0  0
 28 29  2  0  0  0
 29 30  1  0  0  0
 30 31  2  0  0  0
  7  8  1  0  0  0
 12 22  1  0  0  0
 12 13  1  0  0  0
 13 14  2  0  0  0
 13 15  1  0  0  0
 15 16  1  0  0  0
 16 21  2  0  0  0
 16 17  1  0  0  0
 17 18  2  0  0  0
 18 19  1  0  0  0
 19 20  2  0  0  0
 20 21  1  0  0  0
 21 22  1  0  0  0
 22 23  2  0  0  0
  6  9  1  0  0  0
 15 24  1  0  0  0
M  CHG 1   6   1
M  END
> <minimizedAffinity>
-7.39709

$$$$
ZINC000033833682


 24 24  0  0  0  0  0  0  0  0999 V2000
   -6.8347   14.9996  -11.9954 C   0  0  0  0  0  0  0  0  0  0  0  0
   -7.0540   15.2750  -10.6103 O   0  0  0  0  0  0  0  0  0  0  0  0
   -7.5492   14.1607   -9.8652 C   0  0  0  0  0  0  0  0  0  0  0  0
   -6.5301   13.0195   -9.9186 C   0  0  0  0  0  0  0  0  0  0  0  0
   -7.0474   11.8843   -9.2216 O   0  0  0  0  0  0  0  0  0  0  0  0
   -6.2676   12.6479  -11.3813 C   0  0  0  0  0  0  0  0  0  0  0  0
   -5.2646   11.6320  -11.4437 O   0  0  0  0  0  0  0  0  0  0  0  0
   -5.7871   13.8921  -12.1346 C   0  0  0  0  0  0  0  0  0  0  0  0
   -5.6070   13.5739  -13.5161 O   0  0  0  0  0  0  0  0  0  0  0  0
   -7.7219   19.5775  -13.4164 H   0  0  0  0  0  0  0  0  0  0  0  0
   -7.7219   19.5775  -13.4164 H   0  0  0  0  0  0  0  0  0  0  0  0
   -7.7219   19.5775  -13.4164 H   0  0  0  0  0  0  0  0  0  0  0  0
   -7.7721   14.5784   -8.4102 C   0  0  0  0  0  0  0  0  0  0  0  0
   -9.1075   14.2522   -8.0202 O   0  0  0  0  0  0  0  0  0  0  0  0
  -12.8830   15.8451  -13.1356 H   0  0  0  0  0  0  0  0  0  0  0  0
   -6.3679   16.1819  -12.6483 O   0  0  0  0  0  0  0  0  0  0  0  0
   -5.9845   17.2275  -11.7528 C   0  0  0  0  0  0  0  0  0  0  0  0
   -6.8977   18.4373  -11.9605 C   0  0  0  0  0  0  0  0  0  0  0  0
   -6.7937   18.5069   -9.5031 C   0  0  0  0  0  0  0  0  0  0  0  0
   -7.3650   18.9497  -10.6225 C   0  0  0  0  0  0  0  0  0  0  0  0
   -8.4489   19.9357  -10.5525 C   0  0  0  0  0  0  0  0  0  0  0  0
   -9.4986   19.6524   -9.9909 O   0  0  0  0  0  0  0  0  0  0  0  0
   -8.3033   21.0417  -11.0556 O   0  0  0  0  0  0  0  0  0  0  0  0
   -7.3644   18.9447  -10.6232 H   0  0  0  0  0  0  0  0  0  0  0  0
 19 20  2  0  0  0
 20 18  1  0  0  0
 20 21  1  0  0  0
 18 17  1  0  0  0
 17 16  1  0  0  0
 16  1  1  0  0  0
  1  8  1  0  0  0
  1  2  1  0  0  0
  2  3  1  0  0  0
  3 13  1  0  0  0
  3  4  1  0  0  0
 13 14  1  0  0  0
  4  5  1  0  0  0
  4  6  1  0  0  0
  6  7  1  0  0  0
  6  8  1  0  0  0
  8  9  1  0  0  0
 21 22  2  0  0  0
 21 23  1  0  0  0
 14 15  1  0  0  0
  5 10  1  0  0  0
  7 11  1  0  0  0
  9 12  1  0  0  0
 23 24  1  0  0  0
M  END
> <minimizedAffinity>
-7.17357

$$$$
ZINC000219155145


 25 27  0  0  0  0  0  0  0  0999 V2000
   -9.4862   21.6778   -6.5861 C   0  0  0  0  0  0  0  0  0  0  0  0
   -9.6488   20.9311   -5.5219 N   0  0  0  0  0  0  0  0  0  0  0  0
   -9.4166   19.6011   -5.8829 N   0  0  0  0  0  0  0  0  0  0  0  0
   -9.4726   18.4220   -5.0145 C   0  0  0  0  0  0  0  0  0  0  0  0
   -9.6091   17.1641   -5.8791 C   0  0  0  0  0  0  0  0  0  0  0  0
   -8.6482   17.2339   -6.9905 N   0  0  0  0  0  0  0  0  0  0  0  0
   -7.6515   16.3337   -7.1043 C   0  0  0  0  0  0  0  0  0  0  0  0
   -7.5369   15.4489   -6.2829 O   0  0  0  0  0  0  0  0  0  0  0  0
   -8.8087   18.3187   -7.9769 C   0  0  0  0  0  0  0  0  0  0  0  0
   -9.1165   19.5781   -7.2021 C   0  0  0  0  0  0  0  0  0  0  0  0
   -9.1545   20.8433   -7.6611 C   0  0  0  0  0  0  0  0  0  0  0  0
   -8.3705   23.8376   -6.0967 C   0  0  0  0  0  0  0  0  0  0  0  0
   -9.6366   23.1761   -6.6449 C   0  0  0  0  0  0  0  0  0  0  0  0
  -10.7607   23.5732   -5.8570 O   0  0  0  0  0  0  0  0  0  0  0  0
   -9.6346   23.1804   -6.6432 H   0  0  0  0  0  0  0  0  0  0  0  0
   -6.6797   16.4267   -8.2523 C   0  0  0  0  0  0  0  0  0  0  0  0
   -6.7764   15.2137   -9.0753 N   0  0  0  0  0  0  0  0  0  0  0  0
   -6.9894   15.5461  -10.4633 C   0  0  0  0  0  0  0  0  0  0  0  0
   -7.9344   14.5611  -11.1802 C   0  0  0  0  0  0  0  0  0  0  0  0
   -7.6527   13.0977  -10.7877 C   0  0  0  0  0  0  0  0  0  0  0  0
   -6.2376   12.8258  -10.7031 N   0  0  0  0  0  0  0  0  0  0  0  0
   -5.9686   11.4530  -11.1513 C   0  0  0  0  0  0  0  0  0  0  0  0
   -5.8242   12.9813   -9.2949 C   0  0  0  0  0  0  0  0  0  0  0  0
   -5.5639   14.3710   -8.9252 C   0  0  0  0  0  0  0  0  0  0  0  0
   -7.4907   20.5608   -1.9910 H   0  0  0  0  0  0  0  0  0  0  0  0
 12 13  1  0  0  0
 13 14  1  0  0  0
 13  1  1  0  0  0
  1 11  1  0  0  0
  1  2  2  0  0  0
  2  3  1  0  0  0
  3 10  1  0  0  0
  3  4  1  0  0  0
  4  5  1  0  0  0
  5  6  1  0  0  0
  6  7  1  0  0  0
  6  9  1  0  0  0
  7  8  2  0  0  0
  7 16  1  0  0  0
 16 17  1  0  0  0
 17 24  1  0  0  0
 17 18  1  0  0  0
 18 19  1  0  0  0
 19 20  1  0  0  0
 20 21  1  0  0  0
 21 22  1  0  0  0
 21 23  1  0  0  0
 23 24  1  0  0  0
  9 10  1  0  0  0
 10 11  2  0  0  0
 14 15  1  0  0  0
 21 25  1  0  0  0
M  CHG 1  21   1
M  END
> <minimizedAffinity>
-7.25958

$$$$
ZINC000076945223


 26 27  0  0  0  0  0  0  0  0999 V2000
   -8.6767   15.1890   -8.5298 C   0  0  0  0  0  0  0  0  0  0  0  0
   -9.3231   14.0589   -9.1188 O   0  0  0  0  0  0  0  0  0  0  0  0
  -10.3001   14.8874   -6.8504 H   0  0  0  0  0  0  0  0  0  0  0  0
   -7.2235   14.8349   -8.2078 C   0  0  0  0  0  0  0  0  0  0  0  0
   -6.6596   15.8493   -7.3741 O   0  0  0  0  0  0  0  0  0  0  0  0
  -10.3556   14.4954   -7.0308 H   0  0  0  0  0  0  0  0  0  0  0  0
   -6.4340   14.7405   -9.4880 C   0  0  0  0  0  0  0  0  0  0  0  0
   -5.2836   14.3586   -9.4640 O   0  0  0  0  0  0  0  0  0  0  0  0
   -7.0033   15.0786  -10.6525 O   0  0  0  0  0  0  0  0  0  0  0  0
   -6.4718   15.9702  -11.2896 N   0  0  0  0  0  0  0  0  0  0  0  0
   -6.6593   17.2672  -11.0158 C   0  0  0  0  0  0  0  0  0  0  0  0
   -7.3596   17.7034  -10.1269 O   0  0  0  0  0  0  0  0  0  0  0  0
   -5.8587   18.1027  -11.9908 C   0  0  0  0  0  0  0  0  0  0  0  0
   -5.1687   17.0525  -12.8849 C   0  0  0  0  0  0  0  0  0  0  0  0
   -5.6475   15.7340  -12.3176 C   0  0  0  0  0  0  0  0  0  0  0  0
   -5.3391   14.6371  -12.7330 O   0  0  0  0  0  0  0  0  0  0  0  0
   -9.3241   14.8558   -6.2852 O   0  0  0  0  0  0  0  0  0  0  0  0
   -9.3933   15.5724   -7.2607 C   0  0  0  0  0  0  0  0  0  0  0  0
  -10.1022   16.7079   -7.2087 O   0  0  0  0  0  0  0  0  0  0  0  0
   -9.8990   17.4437   -6.2596 N   0  0  0  0  0  0  0  0  0  0  0  0
   -8.8787   18.3095   -6.2196 C   0  0  0  0  0  0  0  0  0  0  0  0
   -8.0549   18.4654   -7.0958 O   0  0  0  0  0  0  0  0  0  0  0  0
   -8.9166   19.0632   -4.9079 C   0  0  0  0  0  0  0  0  0  0  0  0
  -10.1487   18.4765   -4.1895 C   0  0  0  0  0  0  0  0  0  0  0  0
  -10.6808   17.4570   -5.1729 C   0  0  0  0  0  0  0  0  0  0  0  0
  -11.6567   16.7578   -5.0009 O   0  0  0  0  0  0  0  0  0  0  0  0
 17 18  2  0  0  0
 18 19  1  0  0  0
 18  1  1  0  0  0
 19 20  1  0  0  0
 20 25  1  0  0  0
 20 21  1  0  0  0
 21 22  2  0  0  0
 21 23  1  0  0  0
 23 24  1  0  0  0
 24 25  1  0  0  0
 25 26  2  0  0  0
  1  2  1  0  0  0
  1  4  1  0  0  0
  4  5  1  0  0  0
  4  7  1  0  0  0
  7  8  2  0  0  0
  7  9  1  0  0  0
  9 10  1  0  0  0
 10 15  1  0  0  0
 10 11  1  0  0  0
 11 12  2  0  0  0
 11 13  1  0  0  0
 13 14  1  0  0  0
 14 15  1  0  0  0
 15 16  2  0  0  0
  2  3  1  0  0  0
  5  6  1  0  0  0
M  END
> <minimizedAffinity>
-7.29121

$$$$
ZINC000040387488


 32 35  0  0  0  0  0  0  0  0999 V2000
   -8.3431   19.4548   -8.2707 N   0  0  0  0  0  0  0  0  0  0  0  0
   -8.8218   19.6449   -9.6491 C   0  0  0  0  0  0  0  0  0  0  0  0
   -7.7343   19.2980  -10.5788 N   0  0  0  0  0  0  0  0  0  0  0  0
   -7.0808   18.0922  -10.3633 C   0  0  0  0  0  0  0  0  0  0  0  0
   -6.7316   17.3082  -11.3443 N   0  0  0  0  0  0  0  0  0  0  0  0
   -6.8224   17.7745   -9.0367 N   0  0  0  0  0  0  0  0  0  0  0  0
   -7.8815   18.0738   -8.0588 C   0  0  0  0  0  0  0  0  0  0  0  0
  -13.8910   24.5505   -7.6677 H   0  0  0  0  0  0  0  0  0  0  0  0
  -13.8910   24.5505   -7.6677 H   0  0  0  0  0  0  0  0  0  0  0  0
   -5.9541   15.8809  -11.0271 S   0  0  0  0  0  0  0  0  0  0  0  0
   -4.7952   15.8640  -11.8493 O   0  0  0  0  0  0  0  0  0  0  0  0
   -5.9052   15.7563   -9.6125 O   0  0  0  0  0  0  0  0  0  0  0  0
   -6.9935   14.5810  -11.6054 C   0  0  0  0  0  0  0  0  0  0  0  0
   -8.1590   14.8722  -12.2324 C   0  0  0  0  0  0  0  0  0  0  0  0
   -9.0060   13.8686  -12.7029 C   0  0  0  0  0  0  0  0  0  0  0  0
   -8.7025   12.5564  -12.5544 C   0  0  0  0  0  0  0  0  0  0  0  0
   -7.4989   12.1782  -11.9080 C   0  0  0  0  0  0  0  0  0  0  0  0
   -6.9913   10.9842  -11.6473 N   0  0  0  0  0  0  0  0  0  0  0  0
   -5.6320   11.1498  -10.9097 S   0  0  0  0  0  0  0  0  0  0  0  0
   -5.5419   12.7011  -10.8428 N   0  0  0  0  0  0  0  0  0  0  0  0
   -6.6090   13.2291  -11.4208 C   0  0  0  0  0  0  0  0  0  0  0  0
   -9.3823   19.8175   -7.2979 C   0  0  0  0  0  0  0  0  0  0  0  0
   -9.3248   21.3223   -7.0274 C   0  0  0  0  0  0  0  0  0  0  0  0
   -9.7177   21.5946   -5.5739 C   0  0  0  0  0  0  0  0  0  0  0  0
   -9.7640   27.1101   -4.4230 C   0  0  0  0  0  0  0  0  0  0  0  0
  -10.1136   25.7238   -4.7606 N   0  0  0  0  0  0  0  0  0  0  0  0
   -9.7199   24.8374   -3.6575 C   0  0  0  0  0  0  0  0  0  0  0  0
  -10.1008   23.3956   -4.0006 C   0  0  0  0  0  0  0  0  0  0  0  0
   -9.4215   22.9943   -5.2407 N   0  0  0  0  0  0  0  0  0  0  0  0
   -9.7869   23.8882   -6.3487 C   0  0  0  0  0  0  0  0  0  0  0  0
   -9.4083   25.3258   -5.9860 C   0  0  0  0  0  0  0  0  0  0  0  0
  -10.1143   25.7286   -4.7618 H   0  0  0  0  0  0  0  0  0  0  0  0
 25 26  1  0  0  0
 26 31  1  0  0  0
 26 27  1  0  0  0
 27 28  1  0  0  0
 28 29  1  0  0  0
 29 24  1  0  0  0
 29 30  1  0  0  0
 24 23  1  0  0  0
 23 22  1  0  0  0
 22  1  1  0  0  0
  1  7  1  0  0  0
  1  2  1  0  0  0
  2  3  1  0  0  0
  3  4  1  0  0  0
  4  5  2  0  0  0
  4  6  1  0  0  0
  5 10  1  0  0  0
 10 11  2  0  0  0
 10 12  2  0  0  0
 10 13  1  0  0  0
 13 21  1  0  0  0
 13 14  2  0  0  0
 14 15  1  0  0  0
 15 16  2  0  0  0
 16 17  1  0  0  0
 17 21  1  0  0  0
 17 18  2  0  0  0
 18 19  1  0  0  0
 19 20  1  0  0  0
 20 21  2  0  0  0
  6  7  1  0  0  0
 30 31  1  0  0  0
 26 32  1  0  0  0
  3  8  1  0  0  0
  6  9  1  0  0  0
M  CHG 1  26   1
M  END
> <minimizedAffinity>
-8.30742

$$$$
ZINC000004742288


 18 20  0  0  0  0  0  0  0  0999 V2000
   -6.8906   10.6686  -11.9419 O   0  0  0  0  0  0  0  0  0  0  0  0
   -7.0029   11.8798  -11.2072 S   0  0  0  0  0  0  0  0  0  0  0  0
   -7.1757   11.8374   -9.7974 O   0  0  0  0  0  0  0  0  0  0  0  0
   -5.5903   12.9633  -11.6121 C   0  0  0  0  0  0  0  0  0  0  0  0
   -6.1100   13.8873  -12.7317 C   0  0  0  0  0  0  0  0  0  0  0  0
   -5.5853   15.2132  -12.4634 O   0  0  0  0  0  0  0  0  0  0  0  0
   -6.4256   15.8003  -11.5848 C   0  0  0  0  0  0  0  0  0  0  0  0
   -7.6062   15.2547  -11.5487 N   0  0  0  0  0  0  0  0  0  0  0  0
   -7.6207   14.1266  -12.5244 C   0  0  0  0  0  0  0  0  0  0  0  0
   -8.3156   12.9124  -11.9446 C   0  0  0  0  0  0  0  0  0  0  0  0
   -6.0679   16.8733  -10.8028 N   0  0  0  0  0  0  0  0  0  0  0  0
   -8.6215   11.2805  -12.4272 H   0  0  0  0  0  0  0  0  0  0  0  0
   -6.9525   17.9443  -10.6378 C   0  0  0  0  0  0  0  0  0  0  0  0
   -7.2608   18.7646  -11.7152 C   0  0  0  0  0  0  0  0  0  0  0  0
   -8.1345   19.8213  -11.5489 C   0  0  0  0  0  0  0  0  0  0  0  0
   -8.7018   20.0631  -10.3112 C   0  0  0  0  0  0  0  0  0  0  0  0
   -8.3967   19.2485   -9.2363 C   0  0  0  0  0  0  0  0  0  0  0  0
   -7.5288   18.1862   -9.3975 C   0  0  0  0  0  0  0  0  0  0  0  0
  1  2  2  0  0  0
  2 10  1  0  0  0
  2  3  2  0  0  0
  2  4  1  0  0  0
  4  5  1  0  0  0
  5  9  1  0  0  0
  5  6  1  0  0  0
  6  7  1  0  0  0
  7 11  1  0  0  0
  7  8  2  0  0  0
 11 13  1  0  0  0
 13 18  1  0  0  0
 13 14  2  0  0  0
 14 15  1  0  0  0
 15 16  2  0  0  0
 16 17  1  0  0  0
 17 18  2  0  0  0
  8  9  1  0  0  0
  9 10  1  0  0  0
 11 12  1  0  0  0
M  END
> <minimizedAffinity>
-7.70693

$$$$
ZINC000004879577


 35 38  0  0  0  0  0  0  0  0999 V2000
   -6.0685   16.6079   -7.7867 C   0  0  0  0  0  0  0  0  0  0  0  0
   -7.4172   16.5319   -8.5053 C   0  0  0  0  0  0  0  0  0  0  0  0
   -7.6414   15.1909   -8.9454 O   0  0  0  0  0  0  0  0  0  0  0  0
   -7.3954   17.4487   -9.7002 C   0  0  0  0  0  0  0  0  0  0  0  0
   -6.8261   17.0041  -10.8768 C   0  0  0  0  0  0  0  0  0  0  0  0
   -6.7898   17.8223  -11.9939 C   0  0  0  0  0  0  0  0  0  0  0  0
   -7.3210   19.0958  -11.9497 C   0  0  0  0  0  0  0  0  0  0  0  0
   -7.8981   19.5641  -10.7783 C   0  0  0  0  0  0  0  0  0  0  0  0
   -8.4212   20.8141  -10.7278 O   0  0  0  0  0  0  0  0  0  0  0  0
   -7.9377   18.7358   -9.6460 C   0  0  0  0  0  0  0  0  0  0  0  0
   -8.5567   19.2292   -8.4034 C   0  0  0  0  0  0  0  0  0  0  0  0
   -9.2137   20.2487   -8.3857 O   0  0  0  0  0  0  0  0  0  0  0  0
   -8.3373   18.4096   -7.1487 C   0  0  0  0  0  0  0  0  0  0  0  0
   -9.3854   18.7713   -6.1209 C   0  0  0  0  0  0  0  0  0  0  0  0
  -10.0962   19.7365   -6.2673 O   0  0  0  0  0  0  0  0  0  0  0  0
   -9.5139   17.8837   -4.9044 C   0  0  0  0  0  0  0  0  0  0  0  0
   -8.3602   18.0150   -4.0713 O   0  0  0  0  0  0  0  0  0  0  0  0
  -10.7768   18.2362   -4.1474 C   0  0  0  0  0  0  0  0  0  0  0  0
  -11.3411   19.2976   -4.3157 O   0  0  0  0  0  0  0  0  0  0  0  0
  -11.2892   17.2374   -3.2011 C   0  0  0  0  0  0  0  0  0  0  0  0
  -10.7890   15.9581   -3.2088 C   0  0  0  0  0  0  0  0  0  0  0  0
  -11.2808   15.0694   -2.3329 O   0  0  0  0  0  0  0  0  0  0  0  0
   -9.7125   15.5146   -4.1589 C   0  0  0  0  0  0  0  0  0  0  0  0
   -9.6661   16.4300   -5.3797 C   0  0  0  0  0  0  0  0  0  0  0  0
   -8.4842   16.0715   -6.2788 C   0  0  0  0  0  0  0  0  0  0  0  0
   -8.5257   16.9358   -7.5383 C   0  0  0  0  0  0  0  0  0  0  0  0
   -7.3819   16.5594   -8.4866 H   0  0  0  0  0  0  0  0  0  0  0  0
   -7.3819   16.5594   -8.4866 H   0  0  0  0  0  0  0  0  0  0  0  0
   -7.3819   16.5594   -8.4866 H   0  0  0  0  0  0  0  0  0  0  0  0
   -7.3819   16.5594   -8.4866 H   0  0  0  0  0  0  0  0  0  0  0  0
  -12.3420   17.6079   -2.2420 C   0  0  0  0  0  0  0  0  0  0  0  0
  -12.0087   18.0774   -1.0234 N   0  0  0  0  0  0  0  0  0  0  0  0
  -13.5131   17.4903   -2.5490 O   0  0  0  0  0  0  0  0  0  0  0  0
   -5.8808   16.9401   -6.9859 H   0  0  0  0  0  0  0  0  0  0  0  0
   -5.8808   16.9401   -6.9859 H   0  0  0  0  0  0  0  0  0  0  0  0
  2  1  1  0  0  0
  2 26  1  0  0  0
  2  3  1  0  0  0
  2  4  1  0  0  0
  4 10  2  0  0  0
  4  5  1  0  0  0
  5  6  2  0  0  0
  6  7  1  0  0  0
  7  8  2  0  0  0
  8  9  1  0  0  0
  8 10  1  0  0  0
 10 11  1  0  0  0
 11 12  2  0  0  0
 11 13  1  0  0  0
 13 26  1  0  0  0
 13 14  1  0  0  0
 14 15  2  0  0  0
 14 16  1  0  0  0
 16 24  1  0  0  0
 16 17  1  0  0  0
 16 18  1  0  0  0
 18 19  2  0  0  0
 18 20  1  0  0  0
 20 31  1  0  0  0
 20 21  2  0  0  0
 31 32  1  0  0  0
 31 33  2  0  0  0
 21 22  1  0  0  0
 21 23  1  0  0  0
 23 24  1  0  0  0
 24 25  1  0  0  0
 25 26  1  0  0  0
  3 27  1  0  0  0
  9 28  1  0  0  0
 17 29  1  0  0  0
 32 34  1  0  0  0
 32 35  1  0  0  0
 22 30  1  0  0  0
M  END
> <minimizedAffinity>
-10.04934

$$$$
ZINC000016993809


 29 32  0  0  0  0  0  0  0  0999 V2000
   -4.8255   15.1153   -6.9233 C   0  0  0  0  0  0  0  0  0  0  0  0
   -6.0949   14.3916   -7.0755 N   0  0  0  0  0  0  0  0  0  0  0  0
   -7.2138   15.3145   -6.8451 C   0  0  0  0  0  0  0  0  0  0  0  0
   -7.1473   16.4643   -7.8541 C   0  0  0  0  0  0  0  0  0  0  0  0
   -7.2051   15.9142   -9.2139 N   0  0  0  0  0  0  0  0  0  0  0  0
   -7.2925   16.9124  -10.1790 C   0  0  0  0  0  0  0  0  0  0  0  0
   -7.9716   18.0851   -9.8466 C   0  0  0  0  0  0  0  0  0  0  0  0
   -8.0971   19.1041  -10.7666 C   0  0  0  0  0  0  0  0  0  0  0  0
   -7.5480   18.9663  -12.0281 C   0  0  0  0  0  0  0  0  0  0  0  0
   -6.8713   17.8097  -12.3617 C   0  0  0  0  0  0  0  0  0  0  0  0
   -6.7368   16.7829  -11.4411 C   0  0  0  0  0  0  0  0  0  0  0  0
   -5.9695   15.5528  -11.8553 C   0  0  0  0  0  0  0  0  0  0  0  0
   -6.2421   14.4129  -10.8700 C   0  0  0  0  0  0  0  0  0  0  0  0
   -7.6378   13.8957  -11.0717 C   0  0  0  0  0  0  0  0  0  0  0  0
   -8.5724   14.6568  -10.9412 O   0  0  0  0  0  0  0  0  0  0  0  0
   -7.8795   12.6166  -11.3925 N   0  0  0  0  0  0  0  0  0  0  0  0
   -6.8889   11.7262  -11.5528 C   0  0  0  0  0  0  0  0  0  0  0  0
   -7.1648   10.5800  -11.8460 O   0  0  0  0  0  0  0  0  0  0  0  0
   -5.6013   12.0697  -11.3979 N   0  0  0  0  0  0  0  0  0  0  0  0
   -5.2345   13.3181  -11.0753 C   0  0  0  0  0  0  0  0  0  0  0  0
   -4.0559   13.5707  -10.9455 O   0  0  0  0  0  0  0  0  0  0  0  0
   -6.1062   14.9759   -9.4508 C   0  0  0  0  0  0  0  0  0  0  0  0
   -6.1816   13.8373   -8.4337 C   0  0  0  0  0  0  0  0  0  0  0  0
   -6.0917   14.3937   -7.0722 H   0  0  0  0  0  0  0  0  0  0  0  0
   -6.0917   14.3937   -7.0722 H   0  0  0  0  0  0  0  0  0  0  0  0
   -6.0917   14.3937   -7.0722 H   0  0  0  0  0  0  0  0  0  0  0  0
   -7.6850   20.0570  -13.0192 N   0  0  0  0  0  0  0  0  0  0  0  0
   -8.1093   21.1449  -12.6728 O   0  0  0  0  0  0  0  0  0  0  0  0
   -7.3732   19.8667  -14.1811 O   0  0  0  0  0  0  0  0  0  0  0  0
  1  2  1  0  0  0
  2 23  1  0  0  0
  2  3  1  0  0  0
  3  4  1  0  0  0
  4  5  1  0  0  0
  5 22  1  0  0  0
  5  6  1  0  0  0
  6 11  2  0  0  0
  6  7  1  0  0  0
  7  8  2  0  0  0
  8  9  1  0  0  0
  9 27  1  0  0  0
  9 10  2  0  0  0
 27 28  1  0  0  0
 27 29  2  0  0  0
 10 11  1  0  0  0
 11 12  1  0  0  0
 13 12  1  0  0  0
 13 20  1  0  0  0
 13 14  1  0  0  0
 13 22  1  0  0  0
 14 15  2  0  0  0
 14 16  1  0  0  0
 16 17  1  0  0  0
 17 18  2  0  0  0
 17 19  1  0  0  0
 19 20  1  0  0  0
 20 21  2  0  0  0
 22 23  1  0  0  0
  2 24  1  0  0  0
 16 25  1  0  0  0
 19 26  1  0  0  0
M  CHG 1   2   1
M  CHG 1  27   1
M  CHG 1  28  -1
M  END
> <minimizedAffinity>
-8.63829

$$$$
ZINC000020309827


 33 35  0  0  0  0  0  0  0  0999 V2000
   -7.9004   16.4710   -7.1602 C   0  0  0  0  0  0  0  0  0  0  0  0
   -9.0067   15.9413   -6.5898 C   0  0  0  0  0  0  0  0  0  0  0  0
   -9.2886   14.6205   -6.5037 O   0  0  0  0  0  0  0  0  0  0  0  0
   -9.8584   17.0336   -6.0752 C   0  0  0  0  0  0  0  0  0  0  0  0
  -10.9220   16.8805   -5.5082 O   0  0  0  0  0  0  0  0  0  0  0  0
   -9.2817   18.2229   -6.3266 N   0  0  0  0  0  0  0  0  0  0  0  0
   -8.0115   17.9709   -7.0173 C   0  0  0  0  0  0  0  0  0  0  0  0
   -2.1432   18.3147   -9.7209 H   0  0  0  0  0  0  0  0  0  0  0  0
   -8.0261   18.6142   -8.3800 C   0  0  0  0  0  0  0  0  0  0  0  0
   -9.2075   19.0911   -8.9271 C   0  0  0  0  0  0  0  0  0  0  0  0
   -9.1822   19.6750  -10.1795 C   0  0  0  0  0  0  0  0  0  0  0  0
   -8.0528   19.7805  -10.8519 N   0  0  0  0  0  0  0  0  0  0  0  0
   -6.9108   19.3382  -10.3629 C   0  0  0  0  0  0  0  0  0  0  0  0
   -6.8576   18.7484   -9.1141 C   0  0  0  0  0  0  0  0  0  0  0  0
   -6.8015   15.7311   -7.7906 C   0  0  0  0  0  0  0  0  0  0  0  0
   -5.6881   15.7592   -7.2991 O   0  0  0  0  0  0  0  0  0  0  0  0
   -7.5072   13.4985  -11.3300 C   0  0  0  0  0  0  0  0  0  0  0  0
   -7.7654   14.8660  -11.3008 C   0  0  0  0  0  0  0  0  0  0  0  0
   -7.5393   15.5873  -10.1636 C   0  0  0  0  0  0  0  0  0  0  0  0
   -7.0454   14.9543   -9.0182 C   0  0  0  0  0  0  0  0  0  0  0  0
   -6.7834   13.5743   -9.0435 C   0  0  0  0  0  0  0  0  0  0  0  0
   -6.3048   12.9506   -7.9381 O   0  0  0  0  0  0  0  0  0  0  0  0
   -7.0219   12.8537  -10.2009 C   0  0  0  0  0  0  0  0  0  0  0  0
  -11.0566   12.1267   -8.7921 H   0  0  0  0  0  0  0  0  0  0  0  0
   -8.9854   13.0093  -13.1242 C   0  0  0  0  0  0  0  0  0  0  0  0
   -7.7361   12.7918  -12.4655 O   0  0  0  0  0  0  0  0  0  0  0  0
   -9.8227   19.5364   -5.9685 C   0  0  0  0  0  0  0  0  0  0  0  0
   -9.2109   19.9962   -4.6437 C   0  0  0  0  0  0  0  0  0  0  0  0
  -10.2432   19.8435   -3.5249 C   0  0  0  0  0  0  0  0  0  0  0  0
   -9.5840   19.3289   -2.3172 N   0  0  0  0  0  0  0  0  0  0  0  0
   -9.3138   17.8941   -2.4804 C   0  0  0  0  0  0  0  0  0  0  0  0
   -8.3186   20.0446   -2.1072 C   0  0  0  0  0  0  0  0  0  0  0  0
  -13.6671   12.1840   -8.9136 H   0  0  0  0  0  0  0  0  0  0  0  0
 25 26  1  0  0  0
 26 17  1  0  0  0
 17 23  2  0  0  0
 17 18  1  0  0  0
 18 19  2  0  0  0
 19 20  1  0  0  0
 20 15  1  0  0  0
 20 21  2  0  0  0
 15 16  2  0  0  0
 15  1  1  0  0  0
  1  7  1  0  0  0
  1  2  2  0  0  0
  2  3  1  0  0  0
  2  4  1  0  0  0
  4  5  2  0  0  0
  4  6  1  0  0  0
  6 27  1  0  0  0
  6  7  1  0  0  0
 27 28  1  0  0  0
 28 29  1  0  0  0
 29 30  1  0  0  0
 30 31  1  0  0  0
 30 32  1  0  0  0
  7  9  1  0  0  0
  9 14  1  0  0  0
  9 10  2  0  0  0
 10 11  1  0  0  0
 11 12  2  0  0  0
 12 13  1  0  0  0
 13 14  2  0  0  0
 21 22  1  0  0  0
 21 23  1  0  0  0
  3  8  1  0  0  0
 30 33  1  0  0  0
 22 24  1  0  0  0
M  CHG 1  30   1
M  END
> <minimizedAffinity>
-7.03809

$$$$
ZINC000095753166


 24 28  0  0  0  0  0  0  0  0999 V2000
   -8.8933   19.3818   -9.3177 C   0  0  0  0  0  0  0  0  0  0  0  0
   -8.4920   19.7284  -10.6096 C   0  0  0  0  0  0  0  0  0  0  0  0
   -7.6197   18.9899  -11.3988 C   0  0  0  0  0  0  0  0  0  0  0  0
   -7.0934   17.8077  -10.9160 C   0  0  0  0  0  0  0  0  0  0  0  0
   -6.0812   16.9133  -11.5514 C   0  0  0  0  0  0  0  0  0  0  0  0
   -5.6540   15.6995  -10.7247 C   0  0  0  0  0  0  0  0  0  0  0  0
   -5.7141   15.9307   -9.2241 C   0  0  0  0  0  0  0  0  0  0  0  0
   -5.4525   14.7457   -8.3314 C   0  0  0  0  0  0  0  0  0  0  0  0
   -6.1688   14.5426   -7.2529 C   0  0  0  0  0  0  0  0  0  0  0  0
   -7.3156   15.3756   -6.7180 C   0  0  0  0  0  0  0  0  0  0  0  0
   -8.5455   14.6703   -6.8969 O   0  0  0  0  0  0  0  0  0  0  0  0
   -7.3579   16.6807   -7.4814 C   0  0  0  0  0  0  0  0  0  0  0  0
   -8.5532   17.4589   -7.6177 O   0  0  0  0  0  0  0  0  0  0  0  0
   -8.3738   18.1967   -8.7985 C   0  0  0  0  0  0  0  0  0  0  0  0
   -7.5490   17.4832   -9.6596 C   0  0  0  0  0  0  0  0  0  0  0  0
   -7.1875   16.2326   -8.9442 C   0  0  0  0  0  0  0  0  0  0  0  0
   -8.0884   15.0692   -9.3049 C   0  0  0  0  0  0  0  0  0  0  0  0
   -7.9220   14.7812  -10.8046 C   0  0  0  0  0  0  0  0  0  0  0  0
   -6.4714   14.5330  -11.0711 N   0  0  0  0  0  0  0  0  0  0  0  0
   -6.2831   14.2787  -12.5057 C   0  0  0  0  0  0  0  0  0  0  0  0
   -6.0392   13.3504  -10.3144 C   0  0  0  0  0  0  0  0  0  0  0  0
   -8.6633   20.6282   -8.5046 H   0  0  0  0  0  0  0  0  0  0  0  0
   -9.2480   20.7061   -7.3744 C   0  0  0  0  0  0  0  0  0  0  0  0
   -9.7436   20.1638   -8.6001 O   0  0  0  0  0  0  0  0  0  0  0  0
 23 24  1  0  0  0
 24  1  1  0  0  0
  1 14  2  0  0  0
  1  2  1  0  0  0
  2  3  2  0  0  0
  3  4  1  0  0  0
  4 15  2  0  0  0
  4  5  1  0  0  0
  5  6  1  0  0  0
  6 19  1  0  0  0
  6  7  1  0  0  0
  7 16  1  0  0  0
  7  8  1  0  0  0
  8  9  2  0  0  0
  9 10  1  0  0  0
 10 11  1  0  0  0
 10 12  1  0  0  0
 12 16  1  0  0  0
 12 13  1  0  0  0
 13 14  1  0  0  0
 14 15  1  0  0  0
 16 15  1  0  0  0
 16 17  1  0  0  0
 17 18  1  0  0  0
 18 19  1  0  0  0
 19 20  1  0  0  0
 19 21  1  0  0  0
 11 22  1  0  0  0
M  CHG 1  19   1
M  END
> <minimizedAffinity>
-8.99937

$$$$
ZINC000101186941


 24 26  0  0  0  0  0  0  0  0999 V2000
   -7.8785   18.7612  -10.8971 C   0  0  0  0  0  0  0  0  0  0  0  0
   -8.0845   18.5838   -9.4148 C   0  0  0  0  0  0  0  0  0  0  0  0
   -7.8619   17.4215   -8.7027 C   0  0  0  0  0  0  0  0  0  0  0  0
   -8.1959   17.7198   -7.3006 C   0  0  0  0  0  0  0  0  0  0  0  0
   -8.1314   16.9532   -6.3578 O   0  0  0  0  0  0  0  0  0  0  0  0
   -8.5873   19.0106   -7.2663 N   0  0  0  0  0  0  0  0  0  0  0  0
   -8.5110   19.5334   -8.5607 N   0  0  0  0  0  0  0  0  0  0  0  0
   -8.0814   18.5830   -9.4186 H   0  0  0  0  0  0  0  0  0  0  0  0
   -9.0140   19.7434   -6.0718 C   0  0  0  0  0  0  0  0  0  0  0  0
   -9.9422   18.8629   -5.2168 C   0  0  0  0  0  0  0  0  0  0  0  0
  -10.6390   19.7522   -4.1678 C   0  0  0  0  0  0  0  0  0  0  0  0
  -10.7185   21.4135   -4.9291 S   0  0  0  0  0  0  0  0  0  0  0  0
  -12.0713   21.7309   -5.2264 O   0  0  0  0  0  0  0  0  0  0  0  0
   -9.9298   22.3183   -4.1685 O   0  0  0  0  0  0  0  0  0  0  0  0
   -9.8376   20.9919   -6.4806 C   0  0  0  0  0  0  0  0  0  0  0  0
   -7.3853   16.1410   -9.2385 C   0  0  0  0  0  0  0  0  0  0  0  0
   -6.2109   16.0005   -9.5246 O   0  0  0  0  0  0  0  0  0  0  0  0
   -8.2483   15.1207   -9.4138 N   0  0  0  0  0  0  0  0  0  0  0  0
   -7.1001   18.5503   -8.4675 H   0  0  0  0  0  0  0  0  0  0  0  0
   -7.7969   13.9081   -9.9213 C   0  0  0  0  0  0  0  0  0  0  0  0
   -7.4160   12.8772   -9.2233 N   0  0  0  0  0  0  0  0  0  0  0  0
   -7.0343   11.8533   -9.8524 N   0  0  0  0  0  0  0  0  0  0  0  0
   -7.0470   11.8965  -11.1456 C   0  0  0  0  0  0  0  0  0  0  0  0
   -7.6439   13.4856  -11.6281 S   0  0  0  0  0  0  0  0  0  0  0  0
  1  2  1  0  0  0
  2  7  1  0  0  0
  2  3  2  0  0  0
  3 16  1  0  0  0
  3  4  1  0  0  0
 16 17  2  0  0  0
 16 18  1  0  0  0
 18 20  1  0  0  0
 20 24  1  0  0  0
 20 21  2  0  0  0
 21 22  1  0  0  0
 22 23  2  0  0  0
 23 24  1  0  0  0
  4  5  2  0  0  0
  4  6  1  0  0  0
  6  9  1  0  0  0
  6  7  1  0  0  0
  9 15  1  0  0  0
  9 10  1  0  0  0
 10 11  1  0  0  0
 11 12  1  0  0  0
 12 13  2  0  0  0
 12 14  2  0  0  0
 12 15  1  0  0  0
 18 19  1  0  0  0
  7  8  1  0  0  0
M  END
> <minimizedAffinity>
-7.54641

$$$$
ZINC000000432262


 20 21  0  0  0  0  0  0  0  0999 V2000
   -6.0977   14.0892   -8.5238 C   0  0  0  0  0  0  0  0  0  0  0  0
   -7.3092   14.4598   -8.1707 N   0  0  0  0  0  0  0  0  0  0  0  0
   -7.2491   15.1851   -7.0487 C   0  0  0  0  0  0  0  0  0  0  0  0
   -5.9960   15.2850   -6.6734 N   0  0  0  0  0  0  0  0  0  0  0  0
   -5.2303   14.5761   -7.6129 N   0  0  0  0  0  0  0  0  0  0  0  0
   -4.4839   13.0057   -9.8827 H   0  0  0  0  0  0  0  0  0  0  0  0
   -5.7461   11.1917  -10.8857 C   0  0  0  0  0  0  0  0  0  0  0  0
   -6.1021   12.0205   -9.6784 C   0  0  0  0  0  0  0  0  0  0  0  0
   -6.6876   11.5128   -8.7456 O   0  0  0  0  0  0  0  0  0  0  0  0
   -5.7698   13.3259   -9.6354 N   0  0  0  0  0  0  0  0  0  0  0  0
   -6.1021   12.0203   -9.6834 H   0  0  0  0  0  0  0  0  0  0  0  0
   -8.6287   15.8915   -6.2107 S   0  0  0  0  0  0  0  0  0  0  0  0
   -9.2432   17.1177   -7.3980 C   0  0  0  0  0  0  0  0  0  0  0  0
   -8.2424   18.2700   -7.5051 C   0  0  0  0  0  0  0  0  0  0  0  0
   -7.9946   18.5866   -8.9574 C   0  0  0  0  0  0  0  0  0  0  0  0
   -8.6810   19.6205   -9.5664 C   0  0  0  0  0  0  0  0  0  0  0  0
   -8.4536   19.9110  -10.8985 C   0  0  0  0  0  0  0  0  0  0  0  0
   -7.5395   19.1679  -11.6218 C   0  0  0  0  0  0  0  0  0  0  0  0
   -6.8525   18.1345  -11.0127 C   0  0  0  0  0  0  0  0  0  0  0  0
   -7.0766   17.8468   -9.6793 C   0  0  0  0  0  0  0  0  0  0  0  0
  7  8  1  0  0  0
  8  9  2  0  0  0
  8 10  1  0  0  0
 10  1  1  0  0  0
  1  5  1  0  0  0
  1  2  2  0  0  0
  2  3  1  0  0  0
  3 12  1  0  0  0
  3  4  2  0  0  0
 12 13  1  0  0  0
 13 14  1  0  0  0
 14 15  1  0  0  0
 15 20  1  0  0  0
 15 16  2  0  0  0
 16 17  1  0  0  0
 17 18  2  0  0  0
 18 19  1  0  0  0
 19 20  2  0  0  0
  4  5  1  0  0  0
 10 11  1  0  0  0
  5  6  1  0  0  0
M  END
> <minimizedAffinity>
-6.51287

$$$$
ZINC000223861238


 30 32  0  0  0  0  0  0  0  0999 V2000
   -7.9588   15.0859   -8.1970 C   0  0  0  0  0  0  0  0  0  0  0  0
   -6.9406   14.4160   -7.7394 N   0  0  0  0  0  0  0  0  0  0  0  0
   -6.5321   13.4356   -8.4192 N   0  0  0  0  0  0  0  0  0  0  0  0
   -7.1509   13.1628   -9.5223 C   0  0  0  0  0  0  0  0  0  0  0  0
   -8.4566   14.3345   -9.7145 S   0  0  0  0  0  0  0  0  0  0  0  0
   -6.6841   17.3782   -7.7873 O   0  0  0  0  0  0  0  0  0  0  0  0
   -7.8416   17.3227   -7.4201 C   0  0  0  0  0  0  0  0  0  0  0  0
   -8.5508   16.1903   -7.5960 N   0  0  0  0  0  0  0  0  0  0  0  0
   -6.6873   17.3793   -7.7836 H   0  0  0  0  0  0  0  0  0  0  0  0
   -8.4693   18.4952   -6.7752 C   0  0  0  0  0  0  0  0  0  0  0  0
   -8.8800   19.5835   -7.5470 C   0  0  0  0  0  0  0  0  0  0  0  0
   -9.4652   20.6748   -6.9388 C   0  0  0  0  0  0  0  0  0  0  0  0
   -9.6452   20.6921   -5.5670 C   0  0  0  0  0  0  0  0  0  0  0  0
   -9.2403   19.6168   -4.7962 C   0  0  0  0  0  0  0  0  0  0  0  0
   -8.6591   18.5169   -5.3924 C   0  0  0  0  0  0  0  0  0  0  0  0
   -6.7640   11.8494  -10.6314 S   0  0  0  0  0  0  0  0  0  0  0  0
   -5.6605   11.1569  -10.0639 O   0  0  0  0  0  0  0  0  0  0  0  0
   -7.9963   11.2183  -10.9514 O   0  0  0  0  0  0  0  0  0  0  0  0
   -6.2133   12.5378  -12.0332 N   0  0  0  0  0  0  0  0  0  0  0  0
   -8.5978   17.2816   -7.8226 H   0  0  0  0  0  0  0  0  0  0  0  0
   -5.1454   13.5397  -11.9871 C   0  0  0  0  0  0  0  0  0  0  0  0
   -5.7194   14.9133  -12.3400 C   0  0  0  0  0  0  0  0  0  0  0  0
   -5.3509   15.9166  -11.2452 C   0  0  0  0  0  0  0  0  0  0  0  0
   -5.7682   17.2641  -11.6552 N   0  0  0  0  0  0  0  0  0  0  0  0
   -7.0927   17.5564  -11.0943 C   0  0  0  0  0  0  0  0  0  0  0  0
   -7.4970   18.9885  -11.4507 C   0  0  0  0  0  0  0  0  0  0  0  0
   -7.5422   19.1361  -12.9744 C   0  0  0  0  0  0  0  0  0  0  0  0
   -6.1767   18.7570  -13.5548 C   0  0  0  0  0  0  0  0  0  0  0  0
   -5.8230   17.3330  -13.1204 C   0  0  0  0  0  0  0  0  0  0  0  0
   -5.3051    8.1445  -12.9060 H   0  0  0  0  0  0  0  0  0  0  0  0
  6  7  2  0  0  0
  7  8  1  0  0  0
  7 10  1  0  0  0
  8  1  1  0  0  0
  1  5  1  0  0  0
  1  2  2  0  0  0
  2  3  1  0  0  0
  3  4  2  0  0  0
  4 16  1  0  0  0
  4  5  1  0  0  0
 16 17  2  0  0  0
 16 18  2  0  0  0
 16 19  1  0  0  0
 19 21  1  0  0  0
 21 22  1  0  0  0
 22 23  1  0  0  0
 23 24  1  0  0  0
 24 29  1  0  0  0
 24 25  1  0  0  0
 25 26  1  0  0  0
 26 27  1  0  0  0
 27 28  1  0  0  0
 28 29  1  0  0  0
 10 15  1  0  0  0
 10 11  2  0  0  0
 11 12  1  0  0  0
 12 13  2  0  0  0
 13 14  1  0  0  0
 14 15  2  0  0  0
  8  9  1  0  0  0
 19 20  1  0  0  0
 24 30  1  0  0  0
M  CHG 1  24   1
M  END
> <minimizedAffinity>
-7.85554

$$$$
ZINC000239782502


 25 26  0  0  0  0  0  0  0  0999 V2000
   -6.4330   17.4249   -9.3483 C   0  0  0  0  0  0  0  0  0  0  0  0
   -7.2688   17.4640   -8.0670 C   0  0  0  0  0  0  0  0  0  0  0  0
   -6.6252   16.5545   -7.0163 C   0  0  0  0  0  0  0  0  0  0  0  0
   -6.5035   15.1386   -7.5869 C   0  0  0  0  0  0  0  0  0  0  0  0
   -5.7919   14.2391   -6.5743 C   0  0  0  0  0  0  0  0  0  0  0  0
   -5.6962   15.1856   -8.8859 C   0  0  0  0  0  0  0  0  0  0  0  0
   -6.3773   16.0494   -9.8578 N   0  0  0  0  0  0  0  0  0  0  0  0
   -6.1432   20.1783   -8.9878 H   0  0  0  0  0  0  0  0  0  0  0  0
   -6.5303   18.3792  -11.6654 C   0  0  0  0  0  0  0  0  0  0  0  0
   -7.1120   19.2031  -12.6177 C   0  0  0  0  0  0  0  0  0  0  0  0
   -8.2162   19.9654  -12.2882 C   0  0  0  0  0  0  0  0  0  0  0  0
   -8.7411   19.9079  -11.0106 C   0  0  0  0  0  0  0  0  0  0  0  0
   -8.1628   19.0877  -10.0593 C   0  0  0  0  0  0  0  0  0  0  0  0
   -7.0626   18.3189  -10.3854 C   0  0  0  0  0  0  0  0  0  0  0  0
   -5.4615   16.9738  -13.2574 C   0  0  0  0  0  0  0  0  0  0  0  0
   -5.4444   17.6280  -11.9871 O   0  0  0  0  0  0  0  0  0  0  0  0
   -7.7430   15.5550  -10.0775 C   0  0  0  0  0  0  0  0  0  0  0  0
   -7.8008   14.7870  -11.3995 C   0  0  0  0  0  0  0  0  0  0  0  0
   -8.4841   13.4365  -11.1753 C   0  0  0  0  0  0  0  0  0  0  0  0
   -7.2243   12.1446  -10.9906 S   0  0  0  0  0  0  0  0  0  0  0  0
   -7.1055   11.9141   -9.3550 N   0  0  0  0  0  0  0  0  0  0  0  0
   -7.7070   10.9029  -11.4853 O   0  0  0  0  0  0  0  0  0  0  0  0
   -5.9460   12.6368  -11.3689 O   0  0  0  0  0  0  0  0  0  0  0  0
  -13.4555   17.3151  -15.1019 H   0  0  0  0  0  0  0  0  0  0  0  0
  -13.4555   17.3151  -15.1019 H   0  0  0  0  0  0  0  0  0  0  0  0
 15 16  1  0  0  0
 16  9  1  0  0  0
  9 14  2  0  0  0
  9 10  1  0  0  0
 10 11  2  0  0  0
 11 12  1  0  0  0
 12 13  2  0  0  0
 13 14  1  0  0  0
 14  1  1  0  0  0
  1  7  1  0  0  0
  1  2  1  0  0  0
  2  3  1  0  0  0
  3  4  1  0  0  0
  4  5  1  0  0  0
  4  6  1  0  0  0
  6  7  1  0  0  0
  7 17  1  0  0  0
 17 18  1  0  0  0
 18 19  1  0  0  0
 19 20  1  0  0  0
 20 21  1  0  0  0
 20 22  2  0  0  0
 20 23  2  0  0  0
  7  8  1  0  0  0
 21 24  1  0  0  0
 21 25  1  0  0  0
M  CHG 1   7   1
M  END
> <minimizedAffinity>
-7.31352

$$$$
ZINC000217352688


 20 20  0  0  0  0  0  0  0  0999 V2000
   -5.9300   14.7231   -8.6313 N   0  0  0  0  0  0  0  0  0  0  0  0
   -7.5640   20.6926   -9.0358 H   0  0  0  0  0  0  0  0  0  0  0  0
   -7.5640   20.6926   -9.0358 H   0  0  0  0  0  0  0  0  0  0  0  0
   -5.3145   13.7611   -9.5552 C   0  0  0  0  0  0  0  0  0  0  0  0
   -5.0009   14.4754  -10.8854 C   0  0  0  0  0  0  0  0  0  0  0  0
   -5.2767   13.1548  -12.1340 S   0  0  0  0  0  0  0  0  0  0  0  0
   -5.7534   13.7279  -13.3438 O   0  0  0  0  0  0  0  0  0  0  0  0
   -4.1660   12.2686  -12.1510 O   0  0  0  0  0  0  0  0  0  0  0  0
   -6.6724   12.3886  -11.2152 C   0  0  0  0  0  0  0  0  0  0  0  0
   -6.2614   12.5822   -9.7443 C   0  0  0  0  0  0  0  0  0  0  0  0
   -7.4354   12.8032   -8.9603 O   0  0  0  0  0  0  0  0  0  0  0  0
   -3.9958   19.9216   -5.8560 H   0  0  0  0  0  0  0  0  0  0  0  0
   -6.0771   16.0214   -9.3026 C   0  0  0  0  0  0  0  0  0  0  0  0
   -6.5460   17.0687   -8.2905 C   0  0  0  0  0  0  0  0  0  0  0  0
   -8.0709   18.7845   -9.1077 C   0  0  0  0  0  0  0  0  0  0  0  0
   -8.9921   18.1433   -8.6482 O   0  0  0  0  0  0  0  0  0  0  0  0
   -6.8071   18.3336   -8.9820 N   0  0  0  0  0  0  0  0  0  0  0  0
   -8.3440   20.0837   -9.8197 H   0  0  0  0  0  0  0  0  0  0  0  0
   -8.3710   19.8440  -11.3295 C   0  0  0  0  0  0  0  0  0  0  0  0
   -8.3395   20.0857   -9.8190 C   0  0  0  0  0  0  0  0  0  0  0  0
 19 20  1  0  0  0
 20 15  1  0  0  0
 15 16  2  0  0  0
 15 17  1  0  0  0
 17 14  1  0  0  0
 14 13  1  0  0  0
 13  1  1  0  0  0
  1  4  1  0  0  0
  4 10  1  0  0  0
  4  5  1  0  0  0
  5  6  1  0  0  0
  6  7  2  0  0  0
  6  8  2  0  0  0
  6  9  1  0  0  0
  9 10  1  0  0  0
 10 11  1  0  0  0
 17 18  1  0  0  0
  1  2  1  0  0  0
  1  3  1  0  0  0
 11 12  1  0  0  0
M  CHG 1   1   1
M  END
> <minimizedAffinity>
-6.11778

$$$$
ZINC000225866918


 21 22  0  0  0  0  0  0  0  0999 V2000
   -7.6168   13.8324  -10.1006 N   0  0  0  0  0  0  0  0  0  0  0  0
   -6.8189   12.7035  -10.0785 C   0  0  0  0  0  0  0  0  0  0  0  0
   -5.9835   12.7955   -8.9794 C   0  0  0  0  0  0  0  0  0  0  0  0
   -6.2807   13.9956   -8.3293 C   0  0  0  0  0  0  0  0  0  0  0  0
   -5.6600   14.4844   -7.1589 N   0  0  0  0  0  0  0  0  0  0  0  0
   -7.2843   14.6198   -9.0384 C   0  0  0  0  0  0  0  0  0  0  0  0
   -8.7116   15.1397  -13.4197 H   0  0  0  0  0  0  0  0  0  0  0  0
   -8.7116   15.1397  -13.4197 H   0  0  0  0  0  0  0  0  0  0  0  0
   -7.8648   15.8408   -8.7199 N   0  0  0  0  0  0  0  0  0  0  0  0
   -6.8545   16.9048   -8.6624 C   0  0  0  0  0  0  0  0  0  0  0  0
   -7.5445   18.2548   -8.4542 C   0  0  0  0  0  0  0  0  0  0  0  0
   -8.3472   18.2165   -7.1508 C   0  0  0  0  0  0  0  0  0  0  0  0
   -9.0884   19.5424   -6.9676 C   0  0  0  0  0  0  0  0  0  0  0  0
   -9.3592   17.0694   -7.2173 C   0  0  0  0  0  0  0  0  0  0  0  0
   -8.6165   15.7538   -7.4614 C   0  0  0  0  0  0  0  0  0  0  0  0
   -6.8509   11.6299  -11.0255 C   0  0  0  0  0  0  0  0  0  0  0  0
   -6.8763   10.7781  -11.7769 N   0  0  0  0  0  0  0  0  0  0  0  0
   -8.6432   14.1349  -11.1013 C   0  0  0  0  0  0  0  0  0  0  0  0
   -7.9741   14.6378  -12.3820 C   0  0  0  0  0  0  0  0  0  0  0  0
   -6.0387   16.0502  -12.4530 C   0  0  0  0  0  0  0  0  0  0  0  0
   -7.4323   15.9408  -12.1562 O   0  0  0  0  0  0  0  0  0  0  0  0
 20 21  1  0  0  0
 21 19  1  0  0  0
 19 18  1  0  0  0
 18  1  1  0  0  0
  1  6  1  0  0  0
  1  2  1  0  0  0
  2 16  1  0  0  0
  2  3  2  0  0  0
 16 17  3  0  0  0
  3  4  1  0  0  0
  4  5  1  0  0  0
  4  6  2  0  0  0
  6  9  1  0  0  0
  9 15  1  0  0  0
  9 10  1  0  0  0
 10 11  1  0  0  0
 11 12  1  0  0  0
 12 13  1  0  0  0
 12 14  1  0  0  0
 14 15  1  0  0  0
  5  7  1  0  0  0
  5  8  1  0  0  0
M  END
> <minimizedAffinity>
-5.96580

$$$$
ZINC000585282986


 32 34  0  0  0  0  0  0  0  0999 V2000
   -6.8115   14.9909   -6.0774 O   0  0  0  0  0  0  0  0  0  0  0  0
   -7.8086   15.1848   -6.7401 C   0  0  0  0  0  0  0  0  0  0  0  0
   -7.7481   15.1158   -8.0848 N   0  0  0  0  0  0  0  0  0  0  0  0
   -8.9461   15.3543   -8.9012 C   0  0  0  0  0  0  0  0  0  0  0  0
   -9.1458   14.1629   -9.8434 C   0  0  0  0  0  0  0  0  0  0  0  0
   -7.8672   13.9388  -10.6539 C   0  0  0  0  0  0  0  0  0  0  0  0
   -8.0609   12.8482  -11.5567 O   0  0  0  0  0  0  0  0  0  0  0  0
   -6.7101   13.6159   -9.7057 C   0  0  0  0  0  0  0  0  0  0  0  0
   -7.0306   12.4520   -8.9411 O   0  0  0  0  0  0  0  0  0  0  0  0
   -6.4816   14.8065   -8.7622 C   0  0  0  0  0  0  0  0  0  0  0  0
   -6.8134   14.9932   -6.0815 H   0  0  0  0  0  0  0  0  0  0  0  0
   -6.8134   14.9932   -6.0815 H   0  0  0  0  0  0  0  0  0  0  0  0
   -9.1138   15.5091   -6.0603 C   0  0  0  0  0  0  0  0  0  0  0  0
   -9.0972   16.9438   -5.5992 C   0  0  0  0  0  0  0  0  0  0  0  0
   -9.2315   17.2395   -4.2555 C   0  0  0  0  0  0  0  0  0  0  0  0
   -9.2164   18.5554   -3.8325 C   0  0  0  0  0  0  0  0  0  0  0  0
   -9.0663   19.5756   -4.7531 C   0  0  0  0  0  0  0  0  0  0  0  0
   -8.9309   19.2799   -6.0967 C   0  0  0  0  0  0  0  0  0  0  0  0
   -8.9419   17.9637   -6.5192 C   0  0  0  0  0  0  0  0  0  0  0  0
   -5.4399   13.3589  -10.5189 C   0  0  0  0  0  0  0  0  0  0  0  0
   -5.4893   14.1375  -11.7636 N   0  0  0  0  0  0  0  0  0  0  0  0
   -6.2238   10.1097  -14.1352 H   0  0  0  0  0  0  0  0  0  0  0  0
   -6.2238   10.1097  -14.1352 H   0  0  0  0  0  0  0  0  0  0  0  0
   -4.8673   15.4503  -11.5450 C   0  0  0  0  0  0  0  0  0  0  0  0
   -5.4484   16.4612  -12.5355 C   0  0  0  0  0  0  0  0  0  0  0  0
   -6.2298   17.5082  -11.7845 C   0  0  0  0  0  0  0  0  0  0  0  0
   -6.2088   17.5270  -10.4024 C   0  0  0  0  0  0  0  0  0  0  0  0
   -6.9253   18.4870   -9.7130 C   0  0  0  0  0  0  0  0  0  0  0  0
   -7.6638   19.4293  -10.4064 C   0  0  0  0  0  0  0  0  0  0  0  0
   -8.5634   20.6358   -9.5412 Cl  0  0  0  0  0  0  0  0  0  0  0  0
   -7.6845   19.4100  -11.7897 C   0  0  0  0  0  0  0  0  0  0  0  0
   -6.9630   18.4529  -12.4780 C   0  0  0  0  0  0  0  0  0  0  0  0
  1  2  2  0  0  0
  2 13  1  0  0  0
  2  3  1  0  0  0
 13 14  1  0  0  0
 14 19  1  0  0  0
 14 15  2  0  0  0
 15 16  1  0  0  0
 16 17  2  0  0  0
 17 18  1  0  0  0
 18 19  2  0  0  0
  3 10  1  0  0  0
  3  4  1  0  0  0
  4  5  1  0  0  0
  5  6  1  0  0  0
  6  7  1  0  0  0
  6  8  1  0  0  0
  8  9  1  0  0  0
  8 20  1  0  0  0
  8 10  1  0  0  0
 20 21  1  0  0  0
 21 24  1  0  0  0
 24 25  1  0  0  0
 25 26  1  0  0  0
 26 32  1  0  0  0
 26 27  2  0  0  0
 27 28  1  0  0  0
 28 29  2  0  0  0
 29 30  1  0  0  0
 29 31  1  0  0  0
 31 32  2  0  0  0
  7 11  1  0  0  0
  9 12  1  0  0  0
 21 22  1  0  0  0
 21 23  1  0  0  0
M  CHG 1  21   1
M  END
> <minimizedAffinity>
-7.90450

$$$$
ZINC000000380582


 26 28  0  0  0  0  0  0  0  0999 V2000
   -8.3735   20.3873   -9.7260 C   0  0  0  0  0  0  0  0  0  0  0  0
   -7.7760   19.5000  -10.7271 N   0  0  0  0  0  0  0  0  0  0  0  0
   -7.2361   18.2935  -10.3386 C   0  0  0  0  0  0  0  0  0  0  0  0
   -6.6820   17.4751  -11.2831 C   0  0  0  0  0  0  0  0  0  0  0  0
   -6.6762   17.8840  -12.6302 C   0  0  0  0  0  0  0  0  0  0  0  0
   -6.1873   17.1686  -13.4880 O   0  0  0  0  0  0  0  0  0  0  0  0
   -7.2164   19.0737  -12.9633 N   0  0  0  0  0  0  0  0  0  0  0  0
   -7.2143   19.5057  -14.3631 C   0  0  0  0  0  0  0  0  0  0  0  0
   -7.7621   19.8650  -12.0222 C   0  0  0  0  0  0  0  0  0  0  0  0
   -8.2437   20.9336  -12.3466 O   0  0  0  0  0  0  0  0  0  0  0  0
   -6.2090   16.3218  -10.6352 N   0  0  0  0  0  0  0  0  0  0  0  0
   -6.4896   16.4644   -9.2861 C   0  0  0  0  0  0  0  0  0  0  0  0
   -6.2085   15.6066   -8.3483 N   0  0  0  0  0  0  0  0  0  0  0  0
   -6.5532   15.8840   -7.0190 N   0  0  0  0  0  0  0  0  0  0  0  0
   -7.1233   17.6847   -9.1151 N   0  0  0  0  0  0  0  0  0  0  0  0
   -7.7790   19.5003  -10.7231 H   0  0  0  0  0  0  0  0  0  0  0  0
   -7.7790   19.5003  -10.7231 H   0  0  0  0  0  0  0  0  0  0  0  0
   -7.7790   19.5003  -10.7231 H   0  0  0  0  0  0  0  0  0  0  0  0
   -5.5428   15.1809  -11.2683 C   0  0  0  0  0  0  0  0  0  0  0  0
   -6.5569   14.1044  -11.5578 C   0  0  0  0  0  0  0  0  0  0  0  0
   -7.5762   14.3399  -12.4606 C   0  0  0  0  0  0  0  0  0  0  0  0
   -8.5068   13.3524  -12.7261 C   0  0  0  0  0  0  0  0  0  0  0  0
   -8.4183   12.1292  -12.0886 C   0  0  0  0  0  0  0  0  0  0  0  0
   -7.3991   11.8924  -11.1853 C   0  0  0  0  0  0  0  0  0  0  0  0
   -6.4643   12.8779  -10.9237 C   0  0  0  0  0  0  0  0  0  0  0  0
   -5.1840   12.5813   -9.7896 Cl  0  0  0  0  0  0  0  0  0  0  0  0
  1  2  1  0  0  0
  2  9  1  0  0  0
  2  3  1  0  0  0
  3 15  1  0  0  0
  3  4  2  0  0  0
  4  5  1  0  0  0
  4 11  1  0  0  0
  5  6  2  0  0  0
  5  7  1  0  0  0
  7  8  1  0  0  0
  7  9  1  0  0  0
  9 10  2  0  0  0
 11 19  1  0  0  0
 11 12  1  0  0  0
 19 20  1  0  0  0
 20 25  1  0  0  0
 20 21  2  0  0  0
 21 22  1  0  0  0
 22 23  2  0  0  0
 23 24  1  0  0  0
 24 25  2  0  0  0
 25 26  1  0  0  0
 12 13  2  0  0  0
 12 15  1  0  0  0
 13 14  1  0  0  0
 14 16  1  0  0  0
 14 17  1  0  0  0
 15 18  1  0  0  0
M  END
> <minimizedAffinity>
-7.83634

$$$$
ZINC000004981475


 32 34  0  0  0  0  0  0  0  0999 V2000
   -9.6506   20.8974   -4.0396 N   0  0  0  0  0  0  0  0  0  0  0  0
  -10.4067   21.1674   -5.2683 C   0  0  0  0  0  0  0  0  0  0  0  0
   -9.6028   20.6934   -6.4810 C   0  0  0  0  0  0  0  0  0  0  0  0
   -9.3444   19.1889   -6.3589 C   0  0  0  0  0  0  0  0  0  0  0  0
   -8.6209   18.9107   -5.0382 C   0  0  0  0  0  0  0  0  0  0  0  0
   -9.4627   19.4504   -3.8799 C   0  0  0  0  0  0  0  0  0  0  0  0
  -10.1545   21.4582    1.9857 H   0  0  0  0  0  0  0  0  0  0  0  0
   -8.5107   18.7427   -7.4778 N   0  0  0  0  0  0  0  0  0  0  0  0
   -8.8461   17.6349   -8.1683 C   0  0  0  0  0  0  0  0  0  0  0  0
   -9.8405   17.0061   -7.8628 O   0  0  0  0  0  0  0  0  0  0  0  0
  -10.7074   19.9178    2.1879 H   0  0  0  0  0  0  0  0  0  0  0  0
   -8.0046   17.1846   -9.2975 C   0  0  0  0  0  0  0  0  0  0  0  0
   -7.8332   15.8215   -9.5440 C   0  0  0  0  0  0  0  0  0  0  0  0
   -7.0466   15.4081  -10.5992 C   0  0  0  0  0  0  0  0  0  0  0  0
   -6.4280   16.3413  -11.4121 C   0  0  0  0  0  0  0  0  0  0  0  0
   -6.5937   17.6940  -11.1733 C   0  0  0  0  0  0  0  0  0  0  0  0
   -7.3827   18.1208  -10.1251 C   0  0  0  0  0  0  0  0  0  0  0  0
   -5.5855   15.8904  -12.5425 N   0  0  0  0  0  0  0  0  0  0  0  0
   -5.3242   14.7081  -12.6737 O   0  0  0  0  0  0  0  0  0  0  0  0
   -5.1535   16.7019  -13.3416 O   0  0  0  0  0  0  0  0  0  0  0  0
  -10.3908   21.4239   -2.8851 C   0  0  0  0  0  0  0  0  0  0  0  0
   -9.7744   23.7479   -3.4660 N   0  0  0  0  0  0  0  0  0  0  0  0
  -10.7394   22.8696   -3.1288 C   0  0  0  0  0  0  0  0  0  0  0  0
  -11.8884   23.2428   -3.0213 O   0  0  0  0  0  0  0  0  0  0  0  0
   -9.0681   25.7793   -4.6349 H   0  0  0  0  0  0  0  0  0  0  0  0
   -9.9688   24.7729   -6.1680 C   0  0  0  0  0  0  0  0  0  0  0  0
   -9.4586   25.6238   -5.0032 C   0  0  0  0  0  0  0  0  0  0  0  0
   -9.8125   27.0916   -5.2506 C   0  0  0  0  0  0  0  0  0  0  0  0
   -9.3024   27.9425   -4.0859 C   0  0  0  0  0  0  0  0  0  0  0  0
   -9.9571   27.4722   -2.7854 C   0  0  0  0  0  0  0  0  0  0  0  0
   -9.6031   26.0043   -2.5382 C   0  0  0  0  0  0  0  0  0  0  0  0
  -10.1133   25.1534   -3.7029 C   0  0  0  0  0  0  0  0  0  0  0  0
 26 27  1  0  0  0
 27 32  1  0  0  0
 27 28  1  0  0  0
 28 29  1  0  0  0
 29 30  1  0  0  0
 30 31  1  0  0  0
 31 32  1  0  0  0
 32 22  1  0  0  0
 22 23  1  0  0  0
 23 24  2  0  0  0
 23 21  1  0  0  0
 21  1  1  0  0  0
  1  6  1  0  0  0
  1  2  1  0  0  0
  2  3  1  0  0  0
  3  4  1  0  0  0
  4  8  1  0  0  0
  4  5  1  0  0  0
  8  9  1  0  0  0
  9 10  2  0  0  0
  9 12  1  0  0  0
 12 17  1  0  0  0
 12 13  2  0  0  0
 13 14  1  0  0  0
 14 15  2  0  0  0
 15 18  1  0  0  0
 15 16  1  0  0  0
 18 19  1  0  0  0
 18 20  2  0  0  0
 16 17  2  0  0  0
  5  6  1  0  0  0
 22 25  1  0  0  0
  1  7  1  0  0  0
  8 11  1  0  0  0
M  CHG 1   1   1
M  CHG 1  18   1
M  CHG 1  19  -1
M  END
> <minimizedAffinity>
-7.77515

$$$$
ZINC000067291462


 30 32  0  0  0  0  0  0  0  0999 V2000
   -6.7615   13.2696   -9.6790 C   0  0  0  0  0  0  0  0  0  0  0  0
   -7.9372   13.8060   -9.4241 N   0  0  0  0  0  0  0  0  0  0  0  0
   -8.1056   14.6919   -8.4389 C   0  0  0  0  0  0  0  0  0  0  0  0
   -7.0449   15.0577   -7.6704 C   0  0  0  0  0  0  0  0  0  0  0  0
   -7.1719   16.0438   -6.5415 C   0  0  0  0  0  0  0  0  0  0  0  0
   -8.4134   16.8144   -6.6689 N   0  0  0  0  0  0  0  0  0  0  0  0
   -9.5606   15.9064   -6.8289 C   0  0  0  0  0  0  0  0  0  0  0  0
   -9.4816   15.2645   -8.2144 C   0  0  0  0  0  0  0  0  0  0  0  0
   -5.7821   14.4919   -7.9373 C   0  0  0  0  0  0  0  0  0  0  0  0
   -4.8104   14.8017   -7.2673 O   0  0  0  0  0  0  0  0  0  0  0  0
   -5.6653   13.5979   -8.9405 N   0  0  0  0  0  0  0  0  0  0  0  0
  -11.2825    8.9810  -16.1522 H   0  0  0  0  0  0  0  0  0  0  0  0
   -6.6060   12.1038  -10.9909 S   0  0  0  0  0  0  0  0  0  0  0  0
   -7.4237   13.0177  -12.3222 C   0  0  0  0  0  0  0  0  0  0  0  0
   -7.2018   15.4733  -12.5214 N   0  0  0  0  0  0  0  0  0  0  0  0
   -6.6301   14.2586  -12.6408 C   0  0  0  0  0  0  0  0  0  0  0  0
   -5.4770   14.1641  -13.0046 O   0  0  0  0  0  0  0  0  0  0  0  0
   -6.5014   19.1796  -12.9398 H   0  0  0  0  0  0  0  0  0  0  0  0
   -6.4302   16.6796  -12.8312 C   0  0  0  0  0  0  0  0  0  0  0  0
   -5.8978   17.2915  -11.5339 C   0  0  0  0  0  0  0  0  0  0  0  0
   -7.7222   18.8952  -10.9489 C   0  0  0  0  0  0  0  0  0  0  0  0
   -7.0643   17.5634  -10.5820 C   0  0  0  0  0  0  0  0  0  0  0  0
   -8.6022   17.7030   -5.5145 C   0  0  0  0  0  0  0  0  0  0  0  0
   -8.9022   19.0983   -5.9986 C   0  0  0  0  0  0  0  0  0  0  0  0
   -9.3173   20.0659   -5.1026 C   0  0  0  0  0  0  0  0  0  0  0  0
   -9.5928   21.3457   -5.5453 C   0  0  0  0  0  0  0  0  0  0  0  0
   -9.4524   21.6589   -6.8868 C   0  0  0  0  0  0  0  0  0  0  0  0
   -9.7210   22.9098   -7.3206 F   0  0  0  0  0  0  0  0  0  0  0  0
   -9.0361   20.6891   -7.7831 C   0  0  0  0  0  0  0  0  0  0  0  0
   -8.7567   19.4113   -7.3373 C   0  0  0  0  0  0  0  0  0  0  0  0
 21 22  1  0  0  0
 22 20  1  0  0  0
 20 19  1  0  0  0
 19 15  1  0  0  0
 15 16  1  0  0  0
 16 17  2  0  0  0
 16 14  1  0  0  0
 14 13  1  0  0  0
 13  1  1  0  0  0
  1 11  1  0  0  0
  1  2  2  0  0  0
  2  3  1  0  0  0
  3  8  1  0  0  0
  3  4  2  0  0  0
  4  5  1  0  0  0
  4  9  1  0  0  0
  5  6  1  0  0  0
  6 23  1  0  0  0
  6  7  1  0  0  0
 23 24  1  0  0  0
 24 30  1  0  0  0
 24 25  2  0  0  0
 25 26  1  0  0  0
 26 27  2  0  0  0
 27 28  1  0  0  0
 27 29  1  0  0  0
 29 30  2  0  0  0
  7  8  1  0  0  0
  9 10  2  0  0  0
  9 11  1  0  0  0
 15 18  1  0  0  0
 11 12  1  0  0  0
M  END
> <minimizedAffinity>
-7.56186

$$$$
ZINC000020219531


 31 33  0  0  0  0  0  0  0  0999 V2000
   -7.8001   18.1200   -9.9790 C   0  0  0  0  0  0  0  0  0  0  0  0
   -8.1302   19.3473   -9.5141 C   0  0  0  0  0  0  0  0  0  0  0  0
   -7.8209   20.5213  -10.1113 O   0  0  0  0  0  0  0  0  0  0  0  0
   -8.8830   19.2016   -8.2506 C   0  0  0  0  0  0  0  0  0  0  0  0
   -9.3194   20.1224   -7.5888 O   0  0  0  0  0  0  0  0  0  0  0  0
   -9.0141   17.8987   -7.9418 N   0  0  0  0  0  0  0  0  0  0  0  0
   -8.3565   17.1170   -8.9955 C   0  0  0  0  0  0  0  0  0  0  0  0
   -6.2112   12.5101  -13.0155 H   0  0  0  0  0  0  0  0  0  0  0  0
   -7.2344   16.2990   -8.4102 C   0  0  0  0  0  0  0  0  0  0  0  0
   -6.1403   16.9140   -7.8210 C   0  0  0  0  0  0  0  0  0  0  0  0
   -5.1302   16.1312   -7.2947 C   0  0  0  0  0  0  0  0  0  0  0  0
   -5.1988   14.8154   -7.3488 N   0  0  0  0  0  0  0  0  0  0  0  0
   -6.2238   14.1966   -7.9015 C   0  0  0  0  0  0  0  0  0  0  0  0
   -7.2741   14.9135   -8.4429 C   0  0  0  0  0  0  0  0  0  0  0  0
   -7.0519   17.8212  -11.2041 C   0  0  0  0  0  0  0  0  0  0  0  0
   -6.7830   18.7142  -11.9860 O   0  0  0  0  0  0  0  0  0  0  0  0
   -5.8164   13.8379  -12.0236 C   0  0  0  0  0  0  0  0  0  0  0  0
   -4.9154   14.7475  -11.4862 C   0  0  0  0  0  0  0  0  0  0  0  0
   -5.3124   16.0396  -11.2191 C   0  0  0  0  0  0  0  0  0  0  0  0
   -6.6249   16.4373  -11.4891 C   0  0  0  0  0  0  0  0  0  0  0  0
   -7.5324   15.5212  -12.0305 C   0  0  0  0  0  0  0  0  0  0  0  0
   -7.1262   14.2297  -12.3009 C   0  0  0  0  0  0  0  0  0  0  0  0
   -5.4586   11.6382  -11.1987 C   0  0  0  0  0  0  0  0  0  0  0  0
   -5.4201   12.5658  -12.2850 O   0  0  0  0  0  0  0  0  0  0  0  0
   -8.0061   13.3366  -12.8276 O   0  0  0  0  0  0  0  0  0  0  0  0
   -9.3870   13.7043  -12.8197 C   0  0  0  0  0  0  0  0  0  0  0  0
   -9.6980   17.3561   -6.7654 C   0  0  0  0  0  0  0  0  0  0  0  0
   -8.9048   17.7099   -5.5059 C   0  0  0  0  0  0  0  0  0  0  0  0
   -9.8351   18.0268   -4.4141 N   0  0  0  0  0  0  0  0  0  0  0  0
   -9.9377   19.4785   -4.2145 C   0  0  0  0  0  0  0  0  0  0  0  0
  -11.1567   17.4344   -4.6599 C   0  0  0  0  0  0  0  0  0  0  0  0
 23 24  1  0  0  0
 24 17  1  0  0  0
 17 22  2  0  0  0
 17 18  1  0  0  0
 18 19  2  0  0  0
 19 20  1  0  0  0
 20 15  1  0  0  0
 20 21  2  0  0  0
 15 16  2  0  0  0
 15  1  1  0  0  0
  1  7  1  0  0  0
  1  2  2  0  0  0
  2  3  1  0  0  0
  2  4  1  0  0  0
  4  5  2  0  0  0
  4  6  1  0  0  0
  6 27  1  0  0  0
  6  7  1  0  0  0
 27 28  1  0  0  0
 28 29  1  0  0  0
 29 30  1  0  0  0
 29 31  1  0  0  0
  7  9  1  0  0  0
  9 14  1  0  0  0
  9 10  2  0  0  0
 10 11  1  0  0  0
 11 12  2  0  0  0
 12 13  1  0  0  0
 13 14  2  0  0  0
 21 22  1  0  0  0
 22 25  1  0  0  0
 25 26  1  0  0  0
  3  8  1  0  0  0
M  END
> <minimizedAffinity>
-7.83721

$$$$
ZINC000095508408


 23 25  0  0  0  0  0  0  0  0999 V2000
   -5.6637   18.2005  -12.6422 C   0  0  0  0  0  0  0  0  0  0  0  0
   -6.5678   17.7111  -11.5985 N   0  0  0  0  0  0  0  0  0  0  0  0
   -6.5174   16.3064  -11.1854 C   0  0  0  0  0  0  0  0  0  0  0  0
   -7.4459   18.5530  -11.0183 C   0  0  0  0  0  0  0  0  0  0  0  0
   -7.6685   19.6386  -11.5186 O   0  0  0  0  0  0  0  0  0  0  0  0
   -8.0770   18.1915   -9.8837 N   0  0  0  0  0  0  0  0  0  0  0  0
   -9.2262   18.9656   -9.3915 C   0  0  0  0  0  0  0  0  0  0  0  0
   -8.9766   19.2964   -7.9150 C   0  0  0  0  0  0  0  0  0  0  0  0
   -8.7367   18.0485   -7.1811 N   0  0  0  0  0  0  0  0  0  0  0  0
   -7.5134   17.3726   -7.6330 C   0  0  0  0  0  0  0  0  0  0  0  0
   -7.3669   16.0571   -6.8368 C   0  0  0  0  0  0  0  0  0  0  0  0
   -8.2277   14.7948   -7.8429 S   0  0  0  0  0  0  0  0  0  0  0  0
   -7.2884   13.8247   -8.2856 O   0  0  0  0  0  0  0  0  0  0  0  0
   -9.4086   14.3808   -7.1696 O   0  0  0  0  0  0  0  0  0  0  0  0
   -8.6748   15.8909   -9.2432 C   0  0  0  0  0  0  0  0  0  0  0  0
   -7.6317   17.0203   -9.1285 C   0  0  0  0  0  0  0  0  0  0  0  0
   -8.7013   18.2882   -5.7323 C   0  0  0  0  0  0  0  0  0  0  0  0
  -10.0187   17.8816   -5.1235 C   0  0  0  0  0  0  0  0  0  0  0  0
  -10.8806   17.0443   -5.6329 N   0  0  0  0  0  0  0  0  0  0  0  0
  -11.8918   16.9320   -4.8464 N   0  0  0  0  0  0  0  0  0  0  0  0
  -11.7208   17.6925   -3.7996 C   0  0  0  0  0  0  0  0  0  0  0  0
  -10.5249   18.3131   -3.9432 N   0  0  0  0  0  0  0  0  0  0  0  0
   -9.9084   19.2639   -3.0147 C   0  0  0  0  0  0  0  0  0  0  0  0
  1  2  1  0  0  0
  2  3  1  0  0  0
  2  4  1  0  0  0
  4  5  2  0  0  0
  4  6  1  0  0  0
  6 16  1  0  0  0
  6  7  1  0  0  0
  7  8  1  0  0  0
  8  9  1  0  0  0
  9 17  1  0  0  0
  9 10  1  0  0  0
 17 18  1  0  0  0
 18 22  1  0  0  0
 18 19  2  0  0  0
 19 20  1  0  0  0
 20 21  2  0  0  0
 21 22  1  0  0  0
 22 23  1  0  0  0
 10 16  1  0  0  0
 10 11  1  0  0  0
 11 12  1  0  0  0
 12 13  2  0  0  0
 12 14  2  0  0  0
 12 15  1  0  0  0
 15 16  1  0  0  0
M  END
> <minimizedAffinity>
-7.58549

$$$$
ZINC000064814013


 32 35  0  0  0  0  0  0  0  0999 V2000
   -7.9050   16.9993   -7.9245 N   0  0  0  0  0  0  0  0  0  0  0  0
   -8.6663   15.9173   -8.1820 C   0  0  0  0  0  0  0  0  0  0  0  0
   -9.7947   15.8478   -7.7352 O   0  0  0  0  0  0  0  0  0  0  0  0
  -10.8645   22.8744   -4.8853 C   0  0  0  0  0  0  0  0  0  0  0  0
  -10.1515   21.5538   -5.0233 C   0  0  0  0  0  0  0  0  0  0  0  0
   -9.6931   20.8973   -3.9013 C   0  0  0  0  0  0  0  0  0  0  0  0
   -9.8973   21.4866   -2.5295 C   0  0  0  0  0  0  0  0  0  0  0  0
   -9.0335   19.6706   -4.0611 C   0  0  0  0  0  0  0  0  0  0  0  0
   -8.6134   19.0591   -3.0907 O   0  0  0  0  0  0  0  0  0  0  0  0
   -8.8718   19.1780   -5.3055 N   0  0  0  0  0  0  0  0  0  0  0  0
   -8.2715   18.0079   -5.7870 N   0  0  0  0  0  0  0  0  0  0  0  0
   -8.3790   17.9970   -7.0859 C   0  0  0  0  0  0  0  0  0  0  0  0
   -9.0363   19.1300   -7.4896 N   0  0  0  0  0  0  0  0  0  0  0  0
   -9.3426   19.8648   -6.3775 C   0  0  0  0  0  0  0  0  0  0  0  0
   -9.9698   21.0199   -6.2250 N   0  0  0  0  0  0  0  0  0  0  0  0
  -11.6740   17.9743  -14.7151 H   0  0  0  0  0  0  0  0  0  0  0  0
   -8.1296   14.8164   -9.0070 C   0  0  0  0  0  0  0  0  0  0  0  0
   -7.0395   14.0692   -8.5554 C   0  0  0  0  0  0  0  0  0  0  0  0
   -6.5430   13.0424   -9.3293 C   0  0  0  0  0  0  0  0  0  0  0  0
   -7.1235   12.7510  -10.5545 C   0  0  0  0  0  0  0  0  0  0  0  0
   -6.6328   11.7435  -11.3090 F   0  0  0  0  0  0  0  0  0  0  0  0
   -8.2059   13.4895  -11.0076 C   0  0  0  0  0  0  0  0  0  0  0  0
   -8.7142   14.5148  -10.2393 C   0  0  0  0  0  0  0  0  0  0  0  0
   -6.5768   17.1215   -8.5305 C   0  0  0  0  0  0  0  0  0  0  0  0
   -6.7127   17.6451   -9.9370 C   0  0  0  0  0  0  0  0  0  0  0  0
   -7.4660   18.7800  -10.1796 C   0  0  0  0  0  0  0  0  0  0  0  0
   -7.5951   19.2645  -11.4648 C   0  0  0  0  0  0  0  0  0  0  0  0
   -6.9628   18.6070  -12.5220 C   0  0  0  0  0  0  0  0  0  0  0  0
   -6.2038   17.4625  -12.2700 C   0  0  0  0  0  0  0  0  0  0  0  0
   -6.0789   16.9919  -10.9793 C   0  0  0  0  0  0  0  0  0  0  0  0
   -7.0921   19.1046  -13.8586 C   0  0  0  0  0  0  0  0  0  0  0  0
   -7.1947   19.4993  -14.9188 N   0  0  0  0  0  0  0  0  0  0  0  0
  4  5  1  0  0  0
  5 15  1  0  0  0
  5  6  2  0  0  0
  6  7  1  0  0  0
  6  8  1  0  0  0
  8  9  2  0  0  0
  8 10  1  0  0  0
 10 14  1  0  0  0
 10 11  1  0  0  0
 11 12  2  0  0  0
 12  1  1  0  0  0
 12 13  1  0  0  0
  1 24  1  0  0  0
  1  2  1  0  0  0
 24 25  1  0  0  0
 25 30  1  0  0  0
 25 26  2  0  0  0
 26 27  1  0  0  0
 27 28  2  0  0  0
 28 31  1  0  0  0
 28 29  1  0  0  0
 31 32  3  0  0  0
 29 30  2  0  0  0
  2  3  2  0  0  0
  2 17  1  0  0  0
 17 23  1  0  0  0
 17 18  2  0  0  0
 18 19  1  0  0  0
 19 20  2  0  0  0
 20 21  1  0  0  0
 20 22  1  0  0  0
 22 23  2  0  0  0
 13 14  1  0  0  0
 14 15  2  0  0  0
 13 16  1  0  0  0
M  END
> <minimizedAffinity>
-8.96565

$$$$
ZINC000020491757


 31 33  0  0  0  0  0  0  0  0999 V2000
  -10.7068   17.1447   -4.8731 S   0  0  0  0  0  0  0  0  0  0  0  0
   -9.9044   16.4168   -3.9537 O   0  0  0  0  0  0  0  0  0  0  0  0
  -12.1251   17.0628   -4.9014 O   0  0  0  0  0  0  0  0  0  0  0  0
  -10.9454   18.5919   -2.2336 C   0  0  0  0  0  0  0  0  0  0  0  0
  -10.4559   19.4222   -3.3920 C   0  0  0  0  0  0  0  0  0  0  0  0
  -10.1474   20.7568   -3.2018 C   0  0  0  0  0  0  0  0  0  0  0  0
   -9.6976   21.5181   -4.2678 C   0  0  0  0  0  0  0  0  0  0  0  0
   -9.5574   20.9387   -5.5278 C   0  0  0  0  0  0  0  0  0  0  0  0
   -9.8681   19.6025   -5.7103 C   0  0  0  0  0  0  0  0  0  0  0  0
  -10.3112   18.8458   -4.6406 C   0  0  0  0  0  0  0  0  0  0  0  0
   -9.1168   21.6966   -6.5674 O   0  0  0  0  0  0  0  0  0  0  0  0
   -9.4883   23.0774   -6.5592 C   0  0  0  0  0  0  0  0  0  0  0  0
   -9.2497   23.6579   -5.1885 C   0  0  0  0  0  0  0  0  0  0  0  0
   -8.9443   24.8254   -5.0663 O   0  0  0  0  0  0  0  0  0  0  0  0
   -9.3779   22.8727   -4.0967 N   0  0  0  0  0  0  0  0  0  0  0  0
  -10.8255   19.8382   -5.3151 H   0  0  0  0  0  0  0  0  0  0  0  0
  -10.1839   16.7222   -6.3866 N   0  0  0  0  0  0  0  0  0  0  0  0
   -8.1957   17.4527   -3.8417 H   0  0  0  0  0  0  0  0  0  0  0  0
   -9.0860   15.7647   -6.5414 C   0  0  0  0  0  0  0  0  0  0  0  0
   -9.0747   15.2291   -7.9746 C   0  0  0  0  0  0  0  0  0  0  0  0
   -7.6366   14.9112   -8.3889 C   0  0  0  0  0  0  0  0  0  0  0  0
   -6.7958   16.0994   -8.1901 N   0  0  0  0  0  0  0  0  0  0  0  0
   -5.6305   15.7430   -7.3697 C   0  0  0  0  0  0  0  0  0  0  0  0
   -9.8873   10.0689   -7.8259 H   0  0  0  0  0  0  0  0  0  0  0  0
   -6.3416   16.6015   -9.4938 C   0  0  0  0  0  0  0  0  0  0  0  0
   -7.1316   17.8310   -9.8615 C   0  0  0  0  0  0  0  0  0  0  0  0
   -7.1795   18.2539  -11.1767 C   0  0  0  0  0  0  0  0  0  0  0  0
   -7.9041   19.3818  -11.5141 C   0  0  0  0  0  0  0  0  0  0  0  0
   -8.5811   20.0864  -10.5363 C   0  0  0  0  0  0  0  0  0  0  0  0
   -8.5338   19.6631   -9.2213 C   0  0  0  0  0  0  0  0  0  0  0  0
   -7.8127   18.5328   -8.8846 C   0  0  0  0  0  0  0  0  0  0  0  0
  4  5  1  0  0  0
  5 10  2  0  0  0
  5  6  1  0  0  0
  6  7  2  0  0  0
  7 15  1  0  0  0
  7  8  1  0  0  0
  8  9  2  0  0  0
  8 11  1  0  0  0
  9 10  1  0  0  0
 10  1  1  0  0  0
  1  2  2  0  0  0
  1  3  2  0  0  0
  1 17  1  0  0  0
 17 19  1  0  0  0
 19 20  1  0  0  0
 20 21  1  0  0  0
 21 22  1  0  0  0
 22 23  1  0  0  0
 22 25  1  0  0  0
 25 26  1  0  0  0
 26 31  1  0  0  0
 26 27  2  0  0  0
 27 28  1  0  0  0
 28 29  2  0  0  0
 29 30  1  0  0  0
 30 31  2  0  0  0
 11 12  1  0  0  0
 12 13  1  0  0  0
 13 14  2  0  0  0
 13 15  1  0  0  0
 17 18  1  0  0  0
 22 24  1  0  0  0
 15 16  1  0  0  0
M  CHG 1  22   1
M  END
> <minimizedAffinity>
-7.93596

$$$$
ZINC000058298820


 29 31  0  0  0  0  0  0  0  0999 V2000
   -8.0378   13.8206   -9.7345 C   0  0  0  0  0  0  0  0  0  0  0  0
   -8.2870   13.6388  -11.2331 C   0  0  0  0  0  0  0  0  0  0  0  0
   -7.4665   12.4527  -11.7479 C   0  0  0  0  0  0  0  0  0  0  0  0
   -5.9767   12.7603  -11.5714 C   0  0  0  0  0  0  0  0  0  0  0  0
   -5.6396   14.0603  -12.3046 C   0  0  0  0  0  0  0  0  0  0  0  0
   -6.4370   15.1605  -11.7492 N   0  0  0  0  0  0  0  0  0  0  0  0
   -7.8654   14.9068  -11.9787 C   0  0  0  0  0  0  0  0  0  0  0  0
   -8.7915   11.4595   -5.5422 H   0  0  0  0  0  0  0  0  0  0  0  0
   -6.0552   16.4190  -12.4037 C   0  0  0  0  0  0  0  0  0  0  0  0
   -6.6506   17.5789  -11.6481 C   0  0  0  0  0  0  0  0  0  0  0  0
   -6.5691   17.6202  -10.2688 C   0  0  0  0  0  0  0  0  0  0  0  0
   -7.1153   18.6842   -9.5757 C   0  0  0  0  0  0  0  0  0  0  0  0
   -7.7425   19.7072  -10.2619 C   0  0  0  0  0  0  0  0  0  0  0  0
   -7.8233   19.6664  -11.6412 C   0  0  0  0  0  0  0  0  0  0  0  0
   -7.2734   18.6044  -12.3346 C   0  0  0  0  0  0  0  0  0  0  0  0
   -9.3248   16.4939   -7.5628 N   0  0  0  0  0  0  0  0  0  0  0  0
   -8.5910   15.4591   -8.0179 C   0  0  0  0  0  0  0  0  0  0  0  0
   -7.7086   14.9887   -7.3263 O   0  0  0  0  0  0  0  0  0  0  0  0
   -8.8354   14.9455   -9.2399 N   0  0  0  0  0  0  0  0  0  0  0  0
   -9.0546   17.0531   -6.2366 H   0  0  0  0  0  0  0  0  0  0  0  0
   -9.0546   17.0531   -6.2366 H   0  0  0  0  0  0  0  0  0  0  0  0
   -8.5802   18.4984   -6.3758 C   0  0  0  0  0  0  0  0  0  0  0  0
   -9.0592   17.0521   -6.2347 C   0  0  0  0  0  0  0  0  0  0  0  0
  -10.3419   17.0187   -5.4015 C   0  0  0  0  0  0  0  0  0  0  0  0
  -10.2090   16.0174   -4.3404 N   0  0  0  0  0  0  0  0  0  0  0  0
   -9.0654   15.4093   -3.9614 C   0  0  0  0  0  0  0  0  0  0  0  0
   -9.3659   14.5567   -2.9545 C   0  0  0  0  0  0  0  0  0  0  0  0
  -10.7400   14.6468   -2.7098 C   0  0  0  0  0  0  0  0  0  0  0  0
  -11.2455   15.5265   -3.5358 N   0  0  0  0  0  0  0  0  0  0  0  0
 22 23  1  0  0  0
 23 24  1  0  0  0
 23 16  1  0  0  0
 24 25  1  0  0  0
 25 29  1  0  0  0
 25 26  1  0  0  0
 26 27  2  0  0  0
 27 28  1  0  0  0
 28 29  2  0  0  0
 16 17  1  0  0  0
 17 18  2  0  0  0
 17 19  1  0  0  0
 19  1  1  0  0  0
  1  2  1  0  0  0
  2  7  1  0  0  0
  2  3  1  0  0  0
  3  4  1  0  0  0
  4  5  1  0  0  0
  5  6  1  0  0  0
  6  9  1  0  0  0
  6  7  1  0  0  0
  9 10  1  0  0  0
 10 15  1  0  0  0
 10 11  2  0  0  0
 11 12  1  0  0  0
 12 13  2  0  0  0
 13 14  1  0  0  0
 14 15  2  0  0  0
 16 20  1  0  0  0
 19 21  1  0  0  0
  6  8  1  0  0  0
M  CHG 1   6   1
M  END
> <minimizedAffinity>
-7.56534

$$$$
ZINC000004896193


 25 26  0  0  0  0  0  0  0  0999 V2000
   -5.9904   12.1781  -11.1342 C   0  0  0  0  0  0  0  0  0  0  0  0
   -5.8991   13.3973  -10.3782 O   0  0  0  0  0  0  0  0  0  0  0  0
   -6.8981   14.2962  -10.9058 C   0  0  0  0  0  0  0  0  0  0  0  0
   -8.1150   13.3720  -11.1657 C   0  0  0  0  0  0  0  0  0  0  0  0
   -8.9646   13.9195  -12.1759 O   0  0  0  0  0  0  0  0  0  0  0  0
   -7.4339   12.0699  -11.6625 C   0  0  0  0  0  0  0  0  0  0  0  0
   -8.0854   10.9233  -11.1122 O   0  0  0  0  0  0  0  0  0  0  0  0
   -5.6436    9.8805  -10.7169 H   0  0  0  0  0  0  0  0  0  0  0  0
   -5.6436    9.8805  -10.7169 H   0  0  0  0  0  0  0  0  0  0  0  0
   -7.2322   15.3303   -9.9233 N   0  0  0  0  0  0  0  0  0  0  0  0
   -8.1651   15.0705   -8.9565 C   0  0  0  0  0  0  0  0  0  0  0  0
   -8.4725   16.0234   -8.0507 C   0  0  0  0  0  0  0  0  0  0  0  0
   -7.8194   17.2775   -8.1215 C   0  0  0  0  0  0  0  0  0  0  0  0
   -8.0799   18.1524   -7.3154 O   0  0  0  0  0  0  0  0  0  0  0  0
   -6.9061   17.4941   -9.0895 N   0  0  0  0  0  0  0  0  0  0  0  0
   -6.6149   16.5245   -9.9766 C   0  0  0  0  0  0  0  0  0  0  0  0
   -5.7891   16.7342  -10.8440 O   0  0  0  0  0  0  0  0  0  0  0  0
   -9.2046   10.9598  -13.0637 H   0  0  0  0  0  0  0  0  0  0  0  0
   -9.4788   15.7602   -6.9975 N   0  0  0  0  0  0  0  0  0  0  0  0
   -9.4098   14.7441   -6.3296 O   0  0  0  0  0  0  0  0  0  0  0  0
  -10.3756   16.5601   -6.7985 O   0  0  0  0  0  0  0  0  0  0  0  0
   -5.7748   11.1074   -9.0361 O   0  0  0  0  0  0  0  0  0  0  0  0
   -5.6797   11.0004  -10.2469 C   0  0  0  0  0  0  0  0  0  0  0  0
   -5.3379    9.9390  -10.7400 O   0  0  0  0  0  0  0  0  0  0  0  0
   -5.7770   11.1084   -9.0405 H   0  0  0  0  0  0  0  0  0  0  0  0
 22 23  2  0  0  0
 23 24  1  0  0  0
 23  1  1  0  0  0
  1  6  1  0  0  0
  1  2  1  0  0  0
  2  3  1  0  0  0
  3 10  1  0  0  0
  3  4  1  0  0  0
 10 16  1  0  0  0
 10 11  1  0  0  0
 11 12  2  0  0  0
 12 19  1  0  0  0
 12 13  1  0  0  0
 19 20  1  0  0  0
 19 21  2  0  0  0
 13 14  2  0  0  0
 13 15  1  0  0  0
 15 16  1  0  0  0
 16 17  2  0  0  0
  4  5  1  0  0  0
  4  6  1  0  0  0
  6  7  1  0  0  0
 24 25  1  0  0  0
 15 18  1  0  0  0
  5  8  1  0  0  0
  7  9  1  0  0  0
M  CHG 1  19   1
M  CHG 1  20  -1
M  END
> <minimizedAffinity>
-7.87217

$$$$
ZINC000426529472


 27 29  0  0  0  0  0  0  0  0999 V2000
   -7.0702   16.8519  -11.7563 N   0  0  0  0  0  0  0  0  0  0  0  0
   -6.1131   15.9219  -11.9453 C   0  0  0  0  0  0  0  0  0  0  0  0
   -4.9415   16.2201  -11.8157 O   0  0  0  0  0  0  0  0  0  0  0  0
   -6.4549   14.6614  -12.2783 N   0  0  0  0  0  0  0  0  0  0  0  0
   -5.3920   13.6663  -12.3471 C   0  0  0  0  0  0  0  0  0  0  0  0
   -5.5350   12.6820  -11.1935 C   0  0  0  0  0  0  0  0  0  0  0  0
   -5.7348   13.3079   -9.8239 C   0  0  0  0  0  0  0  0  0  0  0  0
   -6.7469   14.4300   -9.8795 C   0  0  0  0  0  0  0  0  0  0  0  0
   -8.1835   13.9916  -10.0472 C   0  0  0  0  0  0  0  0  0  0  0  0
   -8.4488   13.4965  -11.4581 C   0  0  0  0  0  0  0  0  0  0  0  0
   -7.8614   14.3868  -12.5385 C   0  0  0  0  0  0  0  0  0  0  0  0
   -7.9584   12.0893  -11.6009 N   0  0  0  0  0  0  0  0  0  0  0  0
   -6.7116   11.7307  -11.4790 C   0  0  0  0  0  0  0  0  0  0  0  0
   -6.4410   10.5566  -11.6182 O   0  0  0  0  0  0  0  0  0  0  0  0
   -2.2618   20.5132   -6.7514 H   0  0  0  0  0  0  0  0  0  0  0  0
   -2.2618   20.5132   -6.7514 H   0  0  0  0  0  0  0  0  0  0  0  0
   -6.7068   18.1924  -11.2902 C   0  0  0  0  0  0  0  0  0  0  0  0
   -7.7752   18.7021  -10.3207 C   0  0  0  0  0  0  0  0  0  0  0  0
   -8.5535   16.6570   -7.3876 C   0  0  0  0  0  0  0  0  0  0  0  0
   -7.2358   16.6115   -7.0352 C   0  0  0  0  0  0  0  0  0  0  0  0
   -6.3305   17.4974   -8.1831 S   0  0  0  0  0  0  0  0  0  0  0  0
   -7.7452   17.8757   -9.0608 C   0  0  0  0  0  0  0  0  0  0  0  0
   -8.7804   17.3551   -8.5050 N   0  0  0  0  0  0  0  0  0  0  0  0
  -10.5967   16.6375   -6.2581 O   0  0  0  0  0  0  0  0  0  0  0  0
   -9.6168   15.9986   -6.6184 C   0  0  0  0  0  0  0  0  0  0  0  0
   -9.5257   14.8098   -6.3418 O   0  0  0  0  0  0  0  0  0  0  0  0
   -2.6800   16.3321   -4.4358 H   0  0  0  0  0  0  0  0  0  0  0  0
 24 25  2  0  0  0
 25 26  1  0  0  0
 25 19  1  0  0  0
 19 23  1  0  0  0
 19 20  2  0  0  0
 20 21  1  0  0  0
 21 22  1  0  0  0
 22 18  1  0  0  0
 22 23  2  0  0  0
 18 17  1  0  0  0
 17  1  1  0  0  0
  1  2  1  0  0  0
  2  3  2  0  0  0
  2  4  1  0  0  0
  4 11  1  0  0  0
  4  5  1  0  0  0
  5  6  1  0  0  0
  6 13  1  0  0  0
  6  7  1  0  0  0
  7  8  1  0  0  0
  8  9  1  0  0  0
  9 10  1  0  0  0
 10 11  1  0  0  0
 10 12  1  0  0  0
 12 13  1  0  0  0
 13 14  2  0  0  0
 26 27  1  0  0  0
  1 15  1  0  0  0
 12 16  1  0  0  0
M  END
> <minimizedAffinity>
-7.96416

$$$$
ZINC000013549761


 28 31  0  0  0  0  0  0  0  0999 V2000
   -9.0617   18.5646   -2.3406 N   0  0  0  0  0  0  0  0  0  0  0  0
  -10.2024   18.4752   -1.6402 C   0  0  0  0  0  0  0  0  0  0  0  0
  -10.1706   18.6277   -0.4354 O   0  0  0  0  0  0  0  0  0  0  0  0
  -11.3772   18.2221   -2.2362 N   0  0  0  0  0  0  0  0  0  0  0  0
  -11.4759   18.0432   -3.5612 C   0  0  0  0  0  0  0  0  0  0  0  0
  -12.5642   17.8176   -4.0456 O   0  0  0  0  0  0  0  0  0  0  0  0
  -10.2765   18.1151   -4.4624 C   0  0  0  0  0  0  0  0  0  0  0  0
  -10.1137   16.7874   -5.2074 C   0  0  0  0  0  0  0  0  0  0  0  0
   -9.1426   16.9559   -6.3485 C   0  0  0  0  0  0  0  0  0  0  0  0
   -8.6180   15.8146   -6.9338 C   0  0  0  0  0  0  0  0  0  0  0  0
   -7.7307   15.9116   -7.9874 C   0  0  0  0  0  0  0  0  0  0  0  0
   -7.3608   17.1554   -8.4646 C   0  0  0  0  0  0  0  0  0  0  0  0
   -7.8754   18.2957   -7.8856 C   0  0  0  0  0  0  0  0  0  0  0  0
   -8.7691   18.2046   -6.8176 C   0  0  0  0  0  0  0  0  0  0  0  0
   -9.2404   19.3884   -6.2595 N   0  0  0  0  0  0  0  0  0  0  0  0
   -9.3730   20.4558   -7.2594 C   0  0  0  0  0  0  0  0  0  0  0  0
   -9.7391   21.7624   -6.5478 C   0  0  0  0  0  0  0  0  0  0  0  0
  -10.9336   21.5702   -5.7859 O   0  0  0  0  0  0  0  0  0  0  0  0
  -10.8369   20.5319   -4.8061 C   0  0  0  0  0  0  0  0  0  0  0  0
  -10.4853   19.2172   -5.5068 C   0  0  0  0  0  0  0  0  0  0  0  0
   -9.0335   18.4096   -3.6719 C   0  0  0  0  0  0  0  0  0  0  0  0
   -7.9736   18.5013   -4.2533 O   0  0  0  0  0  0  0  0  0  0  0  0
   -7.8082   18.8496   -1.6297 H   0  0  0  0  0  0  0  0  0  0  0  0
   -7.1767   14.6860   -8.6050 N   0  0  0  0  0  0  0  0  0  0  0  0
   -7.8725   13.6926   -8.7174 O   0  0  0  0  0  0  0  0  0  0  0  0
   -6.0250   14.6707   -9.0010 O   0  0  0  0  0  0  0  0  0  0  0  0
   -7.5931   20.3588   -1.5622 C   0  0  0  0  0  0  0  0  0  0  0  0
   -7.8115   18.8459   -1.6307 C   0  0  0  0  0  0  0  0  0  0  0  0
 27 28  1  0  0  0
 28  1  1  0  0  0
  1 21  1  0  0  0
  1  2  1  0  0  0
  2  3  2  0  0  0
  2  4  1  0  0  0
  4  5  1  0  0  0
  5  6  2  0  0  0
  7  5  1  0  0  0
  7 20  1  0  0  0
  7  8  1  0  0  0
  7 21  1  0  0  0
  8  9  1  0  0  0
  9 14  2  0  0  0
  9 10  1  0  0  0
 10 11  2  0  0  0
 11 24  1  0  0  0
 11 12  1  0  0  0
 24 25  1  0  0  0
 24 26  2  0  0  0
 12 13  2  0  0  0
 13 14  1  0  0  0
 14 15  1  0  0  0
 15 20  1  0  0  0
 15 16  1  0  0  0
 16 17  1  0  0  0
 17 18  1  0  0  0
 18 19  1  0  0  0
 19 20  1  0  0  0
 21 22  2  0  0  0
  4 23  1  0  0  0
M  CHG 1  24   1
M  CHG 1  25  -1
M  END
> <minimizedAffinity>
-6.54695

$$$$
ZINC000006143107


 27 28  0  0  0  0  0  0  0  0999 V2000
   -7.8240   17.2126   -9.4932 C   0  0  0  0  0  0  0  0  0  0  0  0
   -7.3001   15.9475  -10.1796 C   0  0  0  0  0  0  0  0  0  0  0  0
   -7.7953   14.7181   -9.4133 C   0  0  0  0  0  0  0  0  0  0  0  0
   -7.3599   14.7981   -8.0546 O   0  0  0  0  0  0  0  0  0  0  0  0
   -7.8577   15.9365   -7.3484 C   0  0  0  0  0  0  0  0  0  0  0  0
   -7.3668   17.2158   -8.0312 C   0  0  0  0  0  0  0  0  0  0  0  0
   -7.2514   13.5059  -10.0304 N   0  0  0  0  0  0  0  0  0  0  0  0
   -6.2147   12.8126   -9.3943 N   0  0  0  0  0  0  0  0  0  0  0  0
   -5.7259   11.7326   -9.9385 C   0  0  0  0  0  0  0  0  0  0  0  0
   -6.2776   11.2656  -11.2137 C   0  0  0  0  0  0  0  0  0  0  0  0
   -5.8404   10.2607  -11.7430 O   0  0  0  0  0  0  0  0  0  0  0  0
   -7.2764   11.9636  -11.7929 N   0  0  0  0  0  0  0  0  0  0  0  0
   -7.7582   13.0707  -11.1976 C   0  0  0  0  0  0  0  0  0  0  0  0
   -9.0262   13.9456  -11.9444 S   0  0  0  0  0  0  0  0  0  0  0  0
   -6.4456   19.0701   -7.8199 H   0  0  0  0  0  0  0  0  0  0  0  0
   -7.2982   18.3851  -10.1691 O   0  0  0  0  0  0  0  0  0  0  0  0
   -7.9833   19.7595  -12.1024 C   0  0  0  0  0  0  0  0  0  0  0  0
   -8.1917   19.2305  -10.7068 C   0  0  0  0  0  0  0  0  0  0  0  0
   -9.1629   19.5671  -10.0718 O   0  0  0  0  0  0  0  0  0  0  0  0
   -5.8482   15.9645  -10.1858 O   0  0  0  0  0  0  0  0  0  0  0  0
   -5.2425   15.8454  -11.3776 C   0  0  0  0  0  0  0  0  0  0  0  0
   -5.1956   17.0205  -12.3199 C   0  0  0  0  0  0  0  0  0  0  0  0
   -4.7348   14.7958  -11.6950 O   0  0  0  0  0  0  0  0  0  0  0  0
   -7.9187   18.3725   -7.3486 O   0  0  0  0  0  0  0  0  0  0  0  0
   -8.9587   18.1570   -6.5280 C   0  0  0  0  0  0  0  0  0  0  0  0
   -8.8257   18.4373   -5.0533 C   0  0  0  0  0  0  0  0  0  0  0  0
  -10.0016   17.7381   -6.9716 O   0  0  0  0  0  0  0  0  0  0  0  0
 17 18  1  0  0  0
 18 19  2  0  0  0
 18 16  1  0  0  0
 16  1  1  0  0  0
  1  6  1  0  0  0
  1  2  1  0  0  0
  2 20  1  0  0  0
  2  3  1  0  0  0
 20 21  1  0  0  0
 21 22  1  0  0  0
 21 23  2  0  0  0
  3  7  1  0  0  0
  3  4  1  0  0  0
  7 13  1  0  0  0
  7  8  1  0  0  0
  8  9  2  0  0  0
  9 10  1  0  0  0
 10 11  2  0  0  0
 10 12  1  0  0  0
 12 13  1  0  0  0
 13 14  2  0  0  0
  4  5  1  0  0  0
  5  6  1  0  0  0
  6 24  1  0  0  0
 24 25  1  0  0  0
 25 26  1  0  0  0
 25 27  2  0  0  0
 12 15  1  0  0  0
M  END
> <minimizedAffinity>
-7.13501

$$$$
ZINC000003069664


 21 22  0  0  0  0  0  0  0  0999 V2000
   -7.8124   17.6757   -8.1289 C   0  0  0  0  0  0  0  0  0  0  0  0
   -7.3931   18.1440   -9.3235 C   0  0  0  0  0  0  0  0  0  0  0  0
   -6.8162   17.2225  -10.3128 C   0  0  0  0  0  0  0  0  0  0  0  0
   -6.1852   17.7251  -11.4559 C   0  0  0  0  0  0  0  0  0  0  0  0
   -5.6455   16.8590  -12.3814 C   0  0  0  0  0  0  0  0  0  0  0  0
   -5.7254   15.4868  -12.1850 C   0  0  0  0  0  0  0  0  0  0  0  0
   -5.2789   14.4414  -12.9387 O   0  0  0  0  0  0  0  0  0  0  0  0
   -5.2749   13.3040  -12.0563 C   0  0  0  0  0  0  0  0  0  0  0  0
   -6.2976   13.6143  -11.0916 O   0  0  0  0  0  0  0  0  0  0  0  0
   -6.3535   14.9779  -11.0466 C   0  0  0  0  0  0  0  0  0  0  0  0
   -6.8912   15.8392  -10.1114 C   0  0  0  0  0  0  0  0  0  0  0  0
   -8.9911   19.7262   -7.5518 N   0  0  0  0  0  0  0  0  0  0  0  0
   -8.3863   18.5926   -7.1446 C   0  0  0  0  0  0  0  0  0  0  0  0
   -8.3179   18.3319   -5.9576 O   0  0  0  0  0  0  0  0  0  0  0  0
  -10.7619   22.7676   -6.3010 H   0  0  0  0  0  0  0  0  0  0  0  0
   -9.5659   20.6446   -6.5658 C   0  0  0  0  0  0  0  0  0  0  0  0
   -9.3196   22.0881   -7.0090 C   0  0  0  0  0  0  0  0  0  0  0  0
   -8.4168   24.1098   -6.0857 C   0  0  0  0  0  0  0  0  0  0  0  0
   -9.3027   22.9658   -5.8312 N   0  0  0  0  0  0  0  0  0  0  0  0
  -10.6630   23.4504   -5.5619 C   0  0  0  0  0  0  0  0  0  0  0  0
   -9.2982   22.9673   -5.8330 H   0  0  0  0  0  0  0  0  0  0  0  0
 18 19  1  0  0  0
 19 20  1  0  0  0
 19 17  1  0  0  0
 17 16  1  0  0  0
 16 12  1  0  0  0
 12 13  1  0  0  0
 13 14  2  0  0  0
 13  1  1  0  0  0
  1  2  2  0  0  0
  2  3  1  0  0  0
  3 11  2  0  0  0
  3  4  1  0  0  0
  4  5  2  0  0  0
  5  6  1  0  0  0
  6 10  2  0  0  0
  6  7  1  0  0  0
  7  8  1  0  0  0
  8  9  1  0  0  0
  9 10  1  0  0  0
 10 11  1  0  0  0
 19 21  1  0  0  0
 12 15  1  0  0  0
M  CHG 1  19   1
M  END
> <minimizedAffinity>
-7.25708

$$$$
ZINC000069561898


 24 26  0  0  0  0  0  0  0  0999 V2000
   -6.2424   17.1396   -7.7162 C   0  0  0  0  0  0  0  0  0  0  0  0
   -7.0827   17.9659   -8.6555 C   0  0  0  0  0  0  0  0  0  0  0  0
   -6.6999   18.1175   -9.9734 C   0  0  0  0  0  0  0  0  0  0  0  0
   -7.4702   18.8762  -10.8360 C   0  0  0  0  0  0  0  0  0  0  0  0
   -8.6258   19.4847  -10.3822 C   0  0  0  0  0  0  0  0  0  0  0  0
   -9.0148   19.3369   -9.0651 C   0  0  0  0  0  0  0  0  0  0  0  0
   -8.2463   18.5714   -8.1976 C   0  0  0  0  0  0  0  0  0  0  0  0
   -8.6366   18.4197   -6.8651 N   0  0  0  0  0  0  0  0  0  0  0  0
   -9.7480   17.4645   -6.7472 C   0  0  0  0  0  0  0  0  0  0  0  0
  -10.1035   17.2835   -5.2691 C   0  0  0  0  0  0  0  0  0  0  0  0
  -10.4214   18.5569   -4.7010 O   0  0  0  0  0  0  0  0  0  0  0  0
   -9.3610   19.5114   -4.7979 C   0  0  0  0  0  0  0  0  0  0  0  0
   -8.9979   19.7151   -6.2712 C   0  0  0  0  0  0  0  0  0  0  0  0
   -7.1584   15.1827   -6.6741 C   0  0  0  0  0  0  0  0  0  0  0  0
   -6.5553   15.7165   -7.9026 N   0  0  0  0  0  0  0  0  0  0  0  0
   -6.3931   16.0654   -8.5970 H   0  0  0  0  0  0  0  0  0  0  0  0
   -5.3208   14.9789   -8.2026 C   0  0  0  0  0  0  0  0  0  0  0  0
   -5.6019   13.9318   -9.2822 C   0  0  0  0  0  0  0  0  0  0  0  0
   -5.9159   14.6238  -10.5836 C   0  0  0  0  0  0  0  0  0  0  0  0
   -4.9297   15.3036  -11.2820 C   0  0  0  0  0  0  0  0  0  0  0  0
   -5.2550   15.9263  -12.4721 C   0  0  0  0  0  0  0  0  0  0  0  0
   -6.4856   15.8792  -12.9438 N   0  0  0  0  0  0  0  0  0  0  0  0
   -7.4485   15.2421  -12.3066 C   0  0  0  0  0  0  0  0  0  0  0  0
   -7.1966   14.5909  -11.1139 C   0  0  0  0  0  0  0  0  0  0  0  0
 14 15  1  0  0  0
 15 17  1  0  0  0
 15  1  1  0  0  0
 17 18  1  0  0  0
 18 19  1  0  0  0
 19 24  1  0  0  0
 19 20  2  0  0  0
 20 21  1  0  0  0
 21 22  2  0  0  0
 22 23  1  0  0  0
 23 24  2  0  0  0
  1  2  1  0  0  0
  2  7  1  0  0  0
  2  3  2  0  0  0
  3  4  1  0  0  0
  4  5  2  0  0  0
  5  6  1  0  0  0
  6  7  2  0  0  0
  7  8  1  0  0  0
  8 13  1  0  0  0
  8  9  1  0  0  0
  9 10  1  0  0  0
 10 11  1  0  0  0
 11 12  1  0  0  0
 12 13  1  0  0  0
 15 16  1  0  0  0
M  CHG 1  15   1
M  END
> <minimizedAffinity>
-7.54218

$$$$
ZINC000032876691


 31 33  0  0  0  0  0  0  0  0999 V2000
   -9.2471   16.8474   -7.3609 C   0  0  0  0  0  0  0  0  0  0  0  0
   -9.4648   15.8116   -7.9437 O   0  0  0  0  0  0  0  0  0  0  0  0
  -10.1932   17.3883   -6.5773 O   0  0  0  0  0  0  0  0  0  0  0  0
  -10.6637   16.7818   -4.2662 C   0  0  0  0  0  0  0  0  0  0  0  0
   -9.8296   17.6627   -5.1986 C   0  0  0  0  0  0  0  0  0  0  0  0
  -10.0940   19.1136   -4.8886 C   0  0  0  0  0  0  0  0  0  0  0  0
  -10.7522   19.4156   -3.9158 O   0  0  0  0  0  0  0  0  0  0  0  0
   -9.5990   20.0756   -5.6924 N   0  0  0  0  0  0  0  0  0  0  0  0
   -9.8260   17.6595   -5.1997 H   0  0  0  0  0  0  0  0  0  0  0  0
   -9.8559   21.4860   -5.3910 C   0  0  0  0  0  0  0  0  0  0  0  0
   -9.1905   21.8532   -4.0631 C   0  0  0  0  0  0  0  0  0  0  0  0
   -9.4589   23.3262   -3.7483 C   0  0  0  0  0  0  0  0  0  0  0  0
   -8.8840   24.1994   -4.8653 C   0  0  0  0  0  0  0  0  0  0  0  0
   -9.5494   23.8322   -6.1933 C   0  0  0  0  0  0  0  0  0  0  0  0
   -9.2811   22.3592   -6.5081 C   0  0  0  0  0  0  0  0  0  0  0  0
  -11.3074   21.7098   -5.2909 C   0  0  0  0  0  0  0  0  0  0  0  0
  -12.4275   21.8825   -5.2137 N   0  0  0  0  0  0  0  0  0  0  0  0
   -7.9133   17.5320   -7.5137 C   0  0  0  0  0  0  0  0  0  0  0  0
   -7.7874   18.0578   -8.8752 N   0  0  0  0  0  0  0  0  0  0  0  0
   -8.3199   19.2031   -9.3446 C   0  0  0  0  0  0  0  0  0  0  0  0
   -8.0019   19.3537  -10.6051 N   0  0  0  0  0  0  0  0  0  0  0  0
   -7.2551   18.3231  -11.0096 C   0  0  0  0  0  0  0  0  0  0  0  0
   -7.0957   17.4771   -9.9193 C   0  0  0  0  0  0  0  0  0  0  0  0
   -6.3389   16.2952  -10.0708 C   0  0  0  0  0  0  0  0  0  0  0  0
   -6.1853   15.5372   -9.1299 O   0  0  0  0  0  0  0  0  0  0  0  0
   -5.7883   16.0147  -11.2702 N   0  0  0  0  0  0  0  0  0  0  0  0
   -5.0021   14.7894  -11.4344 C   0  0  0  0  0  0  0  0  0  0  0  0
   -5.9506   16.8423  -12.3168 C   0  0  0  0  0  0  0  0  0  0  0  0
   -5.4400   16.5568  -13.3829 O   0  0  0  0  0  0  0  0  0  0  0  0
   -6.6611   17.9813  -12.2137 N   0  0  0  0  0  0  0  0  0  0  0  0
   -6.8143   18.8558  -13.3791 C   0  0  0  0  0  0  0  0  0  0  0  0
  4  5  1  0  0  0
  5  3  1  0  0  0
  5  6  1  0  0  0
  3  1  1  0  0  0
  1  2  2  0  0  0
  1 18  1  0  0  0
 18 19  1  0  0  0
 19 23  1  0  0  0
 19 20  1  0  0  0
 20 21  2  0  0  0
 21 22  1  0  0  0
 22 30  1  0  0  0
 22 23  2  0  0  0
 23 24  1  0  0  0
 24 25  2  0  0  0
 24 26  1  0  0  0
 26 27  1  0  0  0
 26 28  1  0  0  0
 28 29  2  0  0  0
 28 30  1  0  0  0
 30 31  1  0  0  0
  6  7  2  0  0  0
  6  8  1  0  0  0
  8 10  1  0  0  0
 10 15  1  0  0  0
 10 16  1  0  0  0
 10 11  1  0  0  0
 16 17  3  0  0  0
 11 12  1  0  0  0
 12 13  1  0  0  0
 13 14  1  0  0  0
 14 15  1  0  0  0
  8  9  1  0  0  0
M  END
> <minimizedAffinity>
-7.94691

$$$$
ZINC000004480689


 28 30  0  0  0  0  0  0  0  0999 V2000
   -8.8074   17.3277   -7.4717 C   0  0  0  0  0  0  0  0  0  0  0  0
  -10.0197   16.5910   -7.6439 O   0  0  0  0  0  0  0  0  0  0  0  0
   -8.5777   18.2369   -8.6540 C   0  0  0  0  0  0  0  0  0  0  0  0
   -9.3118   19.2808   -9.1752 C   0  0  0  0  0  0  0  0  0  0  0  0
   -8.8563   19.9581  -10.2928 C   0  0  0  0  0  0  0  0  0  0  0  0
   -7.6644   19.5890  -10.8894 C   0  0  0  0  0  0  0  0  0  0  0  0
   -6.9233   18.5451  -10.3747 C   0  0  0  0  0  0  0  0  0  0  0  0
   -7.3765   17.8580   -9.2475 C   0  0  0  0  0  0  0  0  0  0  0  0
   -6.7924   16.7189   -8.4969 C   0  0  0  0  0  0  0  0  0  0  0  0
   -5.6152   15.9952   -8.6938 C   0  0  0  0  0  0  0  0  0  0  0  0
   -5.2906   14.9619   -7.8394 C   0  0  0  0  0  0  0  0  0  0  0  0
   -6.1277   14.6386   -6.7870 C   0  0  0  0  0  0  0  0  0  0  0  0
   -7.2964   15.3519   -6.5857 C   0  0  0  0  0  0  0  0  0  0  0  0
   -7.6284   16.3865   -7.4342 C   0  0  0  0  0  0  0  0  0  0  0  0
   -9.8416   21.1152   -6.5477 H   0  0  0  0  0  0  0  0  0  0  0  0
   -8.9130   18.7449   -5.2398 C   0  0  0  0  0  0  0  0  0  0  0  0
   -8.8661   18.1161   -6.2299 C   0  0  0  0  0  0  0  0  0  0  0  0
   -8.9717   19.5334   -3.9981 C   0  0  0  0  0  0  0  0  0  0  0  0
  -10.3693   19.8735   -3.6996 N   0  0  0  0  0  0  0  0  0  0  0  0
  -11.4252   18.3886   -5.5568 H   0  0  0  0  0  0  0  0  0  0  0  0
  -10.4929   21.3268   -3.5248 C   0  0  0  0  0  0  0  0  0  0  0  0
  -12.2847   21.6480   -5.1143 O   0  0  0  0  0  0  0  0  0  0  0  0
  -10.9169   21.9656   -4.8489 C   0  0  0  0  0  0  0  0  0  0  0  0
  -12.5134   18.4174   -4.5658 H   0  0  0  0  0  0  0  0  0  0  0  0
  -10.7856   19.1946   -2.4652 C   0  0  0  0  0  0  0  0  0  0  0  0
  -11.3588   17.8182   -2.8087 C   0  0  0  0  0  0  0  0  0  0  0  0
  -12.3421   17.9548   -3.8366 O   0  0  0  0  0  0  0  0  0  0  0  0
  -13.3123   20.6208   -3.9479 H   0  0  0  0  0  0  0  0  0  0  0  0
 22 23  1  0  0  0
 23 21  1  0  0  0
 21 19  1  0  0  0
 19 18  1  0  0  0
 19 25  1  0  0  0
 18 16  1  0  0  0
 16 17  3  0  0  0
 17  1  1  0  0  0
  1 14  1  0  0  0
  1  2  1  0  0  0
  1  3  1  0  0  0
  3  8  2  0  0  0
  3  4  1  0  0  0
  4  5  2  0  0  0
  5  6  1  0  0  0
  6  7  2  0  0  0
  7  8  1  0  0  0
  8  9  1  0  0  0
  9 14  2  0  0  0
  9 10  1  0  0  0
 10 11  2  0  0  0
 11 12  1  0  0  0
 12 13  2  0  0  0
 13 14  1  0  0  0
 25 26  1  0  0  0
 26 27  1  0  0  0
 22 24  1  0  0  0
 19 20  1  0  0  0
  2 15  1  0  0  0
 27 28  1  0  0  0
M  CHG 1  19   1
M  END
> <minimizedAffinity>
-7.47821

$$$$
ZINC000005392848


 32 35  0  0  0  0  0  0  0  0999 V2000
   -7.2164   13.0642  -10.2645 N   0  0  0  0  0  0  0  0  0  0  0  0
   -7.3328   14.3788   -9.8435 C   0  0  0  0  0  0  0  0  0  0  0  0
   -6.6420   15.3178  -10.4770 N   0  0  0  0  0  0  0  0  0  0  0  0
   -6.7204   16.5925  -10.1112 C   0  0  0  0  0  0  0  0  0  0  0  0
   -7.5548   16.9322   -9.0323 C   0  0  0  0  0  0  0  0  0  0  0  0
   -7.8715   18.0902   -8.4027 N   0  0  0  0  0  0  0  0  0  0  0  0
   -8.7120   17.8442   -7.4406 C   0  0  0  0  0  0  0  0  0  0  0  0
   -8.9875   16.5087   -7.3929 N   0  0  0  0  0  0  0  0  0  0  0  0
   -8.2669   15.9044   -8.3919 C   0  0  0  0  0  0  0  0  0  0  0  0
   -8.1334   14.6556   -8.8269 N   0  0  0  0  0  0  0  0  0  0  0  0
   -7.9168   14.5743  -10.2104 H   0  0  0  0  0  0  0  0  0  0  0  0
   -7.9168   14.5743  -10.2104 H   0  0  0  0  0  0  0  0  0  0  0  0
   -9.8876   15.8424   -6.4484 C   0  0  0  0  0  0  0  0  0  0  0  0
  -10.8359   16.7870   -5.9060 O   0  0  0  0  0  0  0  0  0  0  0  0
  -10.1074   17.5215   -4.8982 C   0  0  0  0  0  0  0  0  0  0  0  0
   -9.2458   16.4586   -4.1808 C   0  0  0  0  0  0  0  0  0  0  0  0
   -9.9126   15.9798   -3.0112 O   0  0  0  0  0  0  0  0  0  0  0  0
   -9.0974   15.3260   -5.2256 C   0  0  0  0  0  0  0  0  0  0  0  0
   -9.6669   14.1118   -4.7321 O   0  0  0  0  0  0  0  0  0  0  0  0
   -7.6236   14.4714  -10.0036 H   0  0  0  0  0  0  0  0  0  0  0  0
   -7.6236   14.4714  -10.0036 H   0  0  0  0  0  0  0  0  0  0  0  0
  -11.0764   18.1784   -3.9132 C   0  0  0  0  0  0  0  0  0  0  0  0
  -12.4138   17.7844   -4.2263 O   0  0  0  0  0  0  0  0  0  0  0  0
   -6.8831   13.1972   -8.4255 H   0  0  0  0  0  0  0  0  0  0  0  0
   -5.9961   17.5657  -10.7786 N   0  0  0  0  0  0  0  0  0  0  0  0
   -8.8184   15.7186   -9.5204 H   0  0  0  0  0  0  0  0  0  0  0  0
   -6.5304   18.1774  -11.9162 C   0  0  0  0  0  0  0  0  0  0  0  0
   -6.2150   17.6939  -13.1797 C   0  0  0  0  0  0  0  0  0  0  0  0
   -6.7446   18.3007  -14.3015 C   0  0  0  0  0  0  0  0  0  0  0  0
   -7.5881   19.3885  -14.1681 C   0  0  0  0  0  0  0  0  0  0  0  0
   -7.9042   19.8724  -12.9117 C   0  0  0  0  0  0  0  0  0  0  0  0
   -7.3825   19.2667  -11.7855 C   0  0  0  0  0  0  0  0  0  0  0  0
  1  2  1  0  0  0
  2 10  2  0  0  0
  2  3  1  0  0  0
  3  4  2  0  0  0
  4 25  1  0  0  0
  4  5  1  0  0  0
 25 27  1  0  0  0
 27 32  1  0  0  0
 27 28  2  0  0  0
 28 29  1  0  0  0
 29 30  2  0  0  0
 30 31  1  0  0  0
 31 32  2  0  0  0
  5  9  2  0  0  0
  5  6  1  0  0  0
  6  7  2  0  0  0
  7  8  1  0  0  0
  8 13  1  0  0  0
  8  9  1  0  0  0
 13 18  1  0  0  0
 13 14  1  0  0  0
 14 15  1  0  0  0
 15 22  1  0  0  0
 15 16  1  0  0  0
 22 23  1  0  0  0
 16 17  1  0  0  0
 16 18  1  0  0  0
 18 19  1  0  0  0
  9 10  1  0  0  0
  1 11  1  0  0  0
  1 12  1  0  0  0
 25 26  1  0  0  0
 23 24  1  0  0  0
 17 20  1  0  0  0
 19 21  1  0  0  0
M  END
> <minimizedAffinity>
-8.12130

$$$$
ZINC000095534377


 31 33  0  0  0  0  0  0  0  0999 V2000
   -6.3253   17.9290  -11.5079 C   0  0  0  0  0  0  0  0  0  0  0  0
   -6.4607   18.1016  -12.9606 N   0  0  0  0  0  0  0  0  0  0  0  0
   -3.8545   15.1363   -9.3906 H   0  0  0  0  0  0  0  0  0  0  0  0
   -3.8545   15.1363   -9.3906 H   0  0  0  0  0  0  0  0  0  0  0  0
   -3.8545   15.1363   -9.3906 H   0  0  0  0  0  0  0  0  0  0  0  0
   -6.0727   14.5679   -9.8016 C   0  0  0  0  0  0  0  0  0  0  0  0
   -5.8455   15.8934  -10.1336 C   0  0  0  0  0  0  0  0  0  0  0  0
   -6.5739   16.4868  -11.1482 C   0  0  0  0  0  0  0  0  0  0  0  0
   -7.5292   15.7600  -11.8334 C   0  0  0  0  0  0  0  0  0  0  0  0
   -7.7614   14.4365  -11.5066 C   0  0  0  0  0  0  0  0  0  0  0  0
   -7.0315   13.8346  -10.4949 C   0  0  0  0  0  0  0  0  0  0  0  0
   -7.2585   12.5331  -10.1724 O   0  0  0  0  0  0  0  0  0  0  0  0
   -7.0877   11.5678  -11.2121 C   0  0  0  0  0  0  0  0  0  0  0  0
   -5.3568   13.9828   -8.8044 O   0  0  0  0  0  0  0  0  0  0  0  0
   -5.8942   14.4547   -6.4960 C   0  0  0  0  0  0  0  0  0  0  0  0
   -5.0043   14.8051   -7.6902 C   0  0  0  0  0  0  0  0  0  0  0  0
   -7.3300   18.8030  -10.8025 C   0  0  0  0  0  0  0  0  0  0  0  0
   -7.4641   18.9240   -9.5082 N   0  0  0  0  0  0  0  0  0  0  0  0
   -8.4542   19.7837   -9.2334 C   0  0  0  0  0  0  0  0  0  0  0  0
   -8.9608   20.2193  -10.3660 N   0  0  0  0  0  0  0  0  0  0  0  0
   -8.2387   19.5970  -11.3972 N   0  0  0  0  0  0  0  0  0  0  0  0
   -2.9674   19.5648  -13.6139 H   0  0  0  0  0  0  0  0  0  0  0  0
   -8.9042   20.1795   -7.8757 C   0  0  0  0  0  0  0  0  0  0  0  0
   -9.0458   21.5270   -7.5514 C   0  0  0  0  0  0  0  0  0  0  0  0
   -9.4647   21.8895   -6.2870 C   0  0  0  0  0  0  0  0  0  0  0  0
   -9.7435   20.9180   -5.3431 C   0  0  0  0  0  0  0  0  0  0  0  0
   -9.6041   19.5786   -5.6596 C   0  0  0  0  0  0  0  0  0  0  0  0
   -9.1920   19.2047   -6.9225 C   0  0  0  0  0  0  0  0  0  0  0  0
   -9.0438   17.7711   -7.2601 N   0  0  0  0  0  0  0  0  0  0  0  0
   -9.9267   17.1945   -7.8696 O   0  0  0  0  0  0  0  0  0  0  0  0
   -8.0390   17.1680   -6.9282 O   0  0  0  0  0  0  0  0  0  0  0  0
 15 16  1  0  0  0
 16 14  1  0  0  0
 14  6  1  0  0  0
  6 11  2  0  0  0
  6  7  1  0  0  0
  7  8  2  0  0  0
  8  1  1  0  0  0
  8  9  1  0  0  0
  1  2  1  0  0  0
  1 17  1  0  0  0
 17 21  1  0  0  0
 17 18  2  0  0  0
 18 19  1  0  0  0
 19 23  1  0  0  0
 19 20  2  0  0  0
 23 28  1  0  0  0
 23 24  2  0  0  0
 24 25  1  0  0  0
 25 26  2  0  0  0
 26 27  1  0  0  0
 27 28  2  0  0  0
 28 29  1  0  0  0
 29 30  1  0  0  0
 29 31  2  0  0  0
 20 21  1  0  0  0
  9 10  2  0  0  0
 10 11  1  0  0  0
 11 12  1  0  0  0
 12 13  1  0  0  0
  2  3  1  0  0  0
  2  4  1  0  0  0
  2  5  1  0  0  0
 21 22  1  0  0  0
M  CHG 1   2   1
M  CHG 1  29   1
M  CHG 1  30  -1
M  END
> <minimizedAffinity>
-8.01848

$$$$
ZINC000021010404


 29 31  0  0  0  0  0  0  0  0999 V2000
   -8.5228   16.9617   -7.7347 S   0  0  0  0  0  0  0  0  0  0  0  0
   -9.7684   16.3840   -8.1008 O   0  0  0  0  0  0  0  0  0  0  0  0
   -7.7811   16.5516   -6.5941 O   0  0  0  0  0  0  0  0  0  0  0  0
   -8.8122   18.6894   -7.5452 C   0  0  0  0  0  0  0  0  0  0  0  0
   -8.9659   19.3469   -6.3725 C   0  0  0  0  0  0  0  0  0  0  0  0
   -8.9202   18.7330   -4.9970 C   0  0  0  0  0  0  0  0  0  0  0  0
   -9.1676   20.6509   -6.6554 N   0  0  0  0  0  0  0  0  0  0  0  0
   -9.1368   20.7997   -8.0481 N   0  0  0  0  0  0  0  0  0  0  0  0
   -8.9177   19.6246   -8.5800 C   0  0  0  0  0  0  0  0  0  0  0  0
   -8.8088   19.3280  -10.0534 C   0  0  0  0  0  0  0  0  0  0  0  0
   -9.3806   21.7218   -5.6787 C   0  0  0  0  0  0  0  0  0  0  0  0
  -10.8685   21.7954   -5.2934 C   0  0  0  0  0  0  0  0  0  0  0  0
  -11.1208   23.1201   -4.5462 C   0  0  0  0  0  0  0  0  0  0  0  0
   -9.8594   24.2777   -5.1904 S   0  0  0  0  0  0  0  0  0  0  0  0
  -10.4960   25.2835   -5.9665 O   0  0  0  0  0  0  0  0  0  0  0  0
   -8.9784   24.6471   -4.1384 O   0  0  0  0  0  0  0  0  0  0  0  0
   -9.0153   23.0923   -6.3053 C   0  0  0  0  0  0  0  0  0  0  0  0
   -7.5187   16.7729   -9.0379 N   0  0  0  0  0  0  0  0  0  0  0  0
   -5.9199   11.5064  -12.3330 H   0  0  0  0  0  0  0  0  0  0  0  0
   -6.9455   13.0028  -10.6920 C   0  0  0  0  0  0  0  0  0  0  0  0
   -7.7602   13.9363  -11.3408 C   0  0  0  0  0  0  0  0  0  0  0  0
   -7.9475   15.1790  -10.7922 C   0  0  0  0  0  0  0  0  0  0  0  0
   -7.3272   15.5121   -9.5910 C   0  0  0  0  0  0  0  0  0  0  0  0
   -6.5158   14.5849   -8.9423 C   0  0  0  0  0  0  0  0  0  0  0  0
   -6.3290   13.3386   -9.4823 C   0  0  0  0  0  0  0  0  0  0  0  0
   -6.7420   11.6663  -11.2787 C   0  0  0  0  0  0  0  0  0  0  0  0
   -7.6825   10.9064  -11.3999 O   0  0  0  0  0  0  0  0  0  0  0  0
   -4.9980   10.0412  -11.1412 C   0  0  0  0  0  0  0  0  0  0  0  0
   -5.5130   11.2870  -11.6809 O   0  0  0  0  0  0  0  0  0  0  0  0
 28 29  1  0  0  0
 29 26  1  0  0  0
 26 27  2  0  0  0
 26 20  1  0  0  0
 20 25  2  0  0  0
 20 21  1  0  0  0
 21 22  2  0  0  0
 22 23  1  0  0  0
 23 18  1  0  0  0
 23 24  2  0  0  0
 18  1  1  0  0  0
  1  2  2  0  0  0
  1  3  2  0  0  0
  1  4  1  0  0  0
  4  9  1  0  0  0
  4  5  2  0  0  0
  5  6  1  0  0  0
  5  7  1  0  0  0
  7 11  1  0  0  0
  7  8  1  0  0  0
 11 17  1  0  0  0
 11 12  1  0  0  0
 12 13  1  0  0  0
 13 14  1  0  0  0
 14 15  2  0  0  0
 14 16  2  0  0  0
 14 17  1  0  0  0
  8  9  2  0  0  0
  9 10  1  0  0  0
 24 25  1  0  0  0
 18 19  1  0  0  0
M  END
> <minimizedAffinity>
-8.04836

$$$$
ZINC000104237134


 23 24  0  0  0  0  0  0  0  0999 V2000
   -8.1507   14.7153  -11.2966 C   0  0  0  0  0  0  0  0  0  0  0  0
   -6.7201   14.4948  -10.8773 C   0  0  0  0  0  0  0  0  0  0  0  0
   -5.9847   15.5088  -10.5047 N   0  0  0  0  0  0  0  0  0  0  0  0
   -6.5498   16.7459  -10.3571 C   0  0  0  0  0  0  0  0  0  0  0  0
   -7.1196   17.1161   -9.1384 C   0  0  0  0  0  0  0  0  0  0  0  0
   -7.6881   18.3656   -8.9957 C   0  0  0  0  0  0  0  0  0  0  0  0
   -7.6965   19.2542  -10.0565 C   0  0  0  0  0  0  0  0  0  0  0  0
   -8.3207   20.6155   -9.8886 C   0  0  0  0  0  0  0  0  0  0  0  0
   -7.1349   18.9004  -11.2696 C   0  0  0  0  0  0  0  0  0  0  0  0
   -6.5546   17.6518  -11.4286 C   0  0  0  0  0  0  0  0  0  0  0  0
   -5.9872   17.2930  -12.6527 N   0  0  0  0  0  0  0  0  0  0  0  0
   -6.7274   14.4140  -10.2246 H   0  0  0  0  0  0  0  0  0  0  0  0
   -6.7274   14.4140  -10.2246 H   0  0  0  0  0  0  0  0  0  0  0  0
   -6.1540   13.1445  -10.8875 C   0  0  0  0  0  0  0  0  0  0  0  0
   -6.3562   12.2729   -9.8062 C   0  0  0  0  0  0  0  0  0  0  0  0
   -7.0782   12.6610   -8.7312 O   0  0  0  0  0  0  0  0  0  0  0  0
   -5.7907   10.9853   -9.8664 C   0  0  0  0  0  0  0  0  0  0  0  0
   -5.0735   10.6138  -10.9464 C   0  0  0  0  0  0  0  0  0  0  0  0
   -4.4763    9.2309  -10.9916 C   0  0  0  0  0  0  0  0  0  0  0  0
   -4.8791   11.4433  -11.9804 O   0  0  0  0  0  0  0  0  0  0  0  0
   -5.3939   12.6850  -11.9926 C   0  0  0  0  0  0  0  0  0  0  0  0
   -5.2005   13.4166  -12.9472 O   0  0  0  0  0  0  0  0  0  0  0  0
   -6.7863   14.4735  -10.8450 H   0  0  0  0  0  0  0  0  0  0  0  0
  1  2  1  0  0  0
  2  3  2  0  0  0
  2 14  1  0  0  0
  3  4  1  0  0  0
  4 10  1  0  0  0
  4  5  2  0  0  0
  5  6  1  0  0  0
  6  7  2  0  0  0
  7  8  1  0  0  0
  7  9  1  0  0  0
  9 10  2  0  0  0
 10 11  1  0  0  0
 14 21  1  0  0  0
 14 15  2  0  0  0
 15 16  1  0  0  0
 15 17  1  0  0  0
 17 18  2  0  0  0
 18 19  1  0  0  0
 18 20  1  0  0  0
 20 21  1  0  0  0
 21 22  2  0  0  0
 11 12  1  0  0  0
 11 13  1  0  0  0
 16 23  1  0  0  0
M  END
> <minimizedAffinity>
-7.71755

$$$$
ZINC000102987053


 26 27  0  0  0  0  0  0  0  0999 V2000
   -7.9187   16.5641   -7.4472 N   0  0  0  0  0  0  0  0  0  0  0  0
   -9.1949   16.8164   -7.0944 C   0  0  0  0  0  0  0  0  0  0  0  0
  -10.0143   17.1086   -7.9442 O   0  0  0  0  0  0  0  0  0  0  0  0
   -6.6501   17.0840  -11.3550 H   0  0  0  0  0  0  0  0  0  0  0  0
   -9.5971   16.7381   -5.6790 C   0  0  0  0  0  0  0  0  0  0  0  0
   -9.9301   15.5424   -5.1340 O   0  0  0  0  0  0  0  0  0  0  0  0
   -9.6342   17.8664   -4.9188 C   0  0  0  0  0  0  0  0  0  0  0  0
  -10.0839   17.9874   -3.6063 N   0  0  0  0  0  0  0  0  0  0  0  0
   -9.9460   19.2729   -3.2379 C   0  0  0  0  0  0  0  0  0  0  0  0
  -10.3722   19.8897   -1.6988 S   0  0  0  0  0  0  0  0  0  0  0  0
   -9.4300   20.0091   -4.2340 N   0  0  0  0  0  0  0  0  0  0  0  0
   -9.2002   19.2245   -5.3068 C   0  0  0  0  0  0  0  0  0  0  0  0
   -8.7380   19.5668   -6.3783 O   0  0  0  0  0  0  0  0  0  0  0  0
   -7.8362   15.7902  -11.7636 H   0  0  0  0  0  0  0  0  0  0  0  0
   -7.8362   15.7902  -11.7636 H   0  0  0  0  0  0  0  0  0  0  0  0
   -7.8362   15.7902  -11.7636 H   0  0  0  0  0  0  0  0  0  0  0  0
   -6.2556   17.3369  -12.8142 C   0  0  0  0  0  0  0  0  0  0  0  0
   -6.6972   17.1315  -11.3881 C   0  0  0  0  0  0  0  0  0  0  0  0
   -6.5920   18.1666  -10.4775 C   0  0  0  0  0  0  0  0  0  0  0  0
   -6.9959   17.9818   -9.1697 C   0  0  0  0  0  0  0  0  0  0  0  0
   -7.5087   16.7545   -8.7697 C   0  0  0  0  0  0  0  0  0  0  0  0
   -7.6135   15.7166   -9.6874 C   0  0  0  0  0  0  0  0  0  0  0  0
   -7.2123   15.9096  -10.9945 C   0  0  0  0  0  0  0  0  0  0  0  0
   -8.1593   14.4069   -9.2657 N   0  0  0  0  0  0  0  0  0  0  0  0
   -9.3264   14.1349   -9.4835 O   0  0  0  0  0  0  0  0  0  0  0  0
   -7.4414   13.6013   -8.7008 O   0  0  0  0  0  0  0  0  0  0  0  0
 17 18  1  0  0  0
 18 23  2  0  0  0
 18 19  1  0  0  0
 19 20  2  0  0  0
 20 21  1  0  0  0
 21  1  1  0  0  0
 21 22  2  0  0  0
  1  2  1  0  0  0
  2  3  2  0  0  0
  2  5  1  0  0  0
  5  6  1  0  0  0
  5  7  2  0  0  0
  7 12  1  0  0  0
  7  8  1  0  0  0
  8  9  1  0  0  0
  9 10  2  0  0  0
  9 11  1  0  0  0
 11 12  1  0  0  0
 12 13  2  0  0  0
 22 24  1  0  0  0
 22 23  1  0  0  0
 24 25  1  0  0  0
 24 26  2  0  0  0
  1  4  1  0  0  0
  6 14  1  0  0  0
  8 15  1  0  0  0
 11 16  1  0  0  0
M  CHG 1  24   1
M  CHG 1  25  -1
M  END
> <minimizedAffinity>
-7.34603

$$$$
ZINC000100568131


 26 28  0  0  0  0  0  0  0  0999 V2000
   -9.2688   19.4974   -8.5286 C   0  0  0  0  0  0  0  0  0  0  0  0
   -8.6495   20.5681   -9.3352 N   0  0  0  0  0  0  0  0  0  0  0  0
   -7.6923   19.9750  -10.1044 N   0  0  0  0  0  0  0  0  0  0  0  0
   -7.6250   18.6234   -9.8798 C   0  0  0  0  0  0  0  0  0  0  0  0
   -8.5354   18.2474   -8.9486 C   0  0  0  0  0  0  0  0  0  0  0  0
   -8.4026   16.8040   -8.7659 C   0  0  0  0  0  0  0  0  0  0  0  0
   -9.0620   16.1229   -8.0051 O   0  0  0  0  0  0  0  0  0  0  0  0
   -7.4305   16.3531   -9.5792 N   0  0  0  0  0  0  0  0  0  0  0  0
   -6.9117   17.3768  -10.2814 C   0  0  0  0  0  0  0  0  0  0  0  0
   -6.0193   17.2992  -11.1000 O   0  0  0  0  0  0  0  0  0  0  0  0
   -9.7846   19.0864   -6.1468 H   0  0  0  0  0  0  0  0  0  0  0  0
   -9.7846   19.0864   -6.1468 H   0  0  0  0  0  0  0  0  0  0  0  0
   -7.0196   15.0170   -9.6799 C   0  0  0  0  0  0  0  0  0  0  0  0
   -7.5588   14.1956  -10.6605 C   0  0  0  0  0  0  0  0  0  0  0  0
   -7.1518   12.8792  -10.7572 C   0  0  0  0  0  0  0  0  0  0  0  0
   -6.2085   12.3794   -9.8786 C   0  0  0  0  0  0  0  0  0  0  0  0
   -5.6698   13.1951   -8.9004 C   0  0  0  0  0  0  0  0  0  0  0  0
   -6.0682   14.5138   -8.8025 C   0  0  0  0  0  0  0  0  0  0  0  0
   -5.4808   15.4021   -7.7362 C   0  0  0  0  0  0  0  0  0  0  0  0
   -7.7259   12.0028  -11.8029 N   0  0  0  0  0  0  0  0  0  0  0  0
   -8.6496   12.3996  -12.4904 O   0  0  0  0  0  0  0  0  0  0  0  0
   -7.2744   10.8847  -11.9758 O   0  0  0  0  0  0  0  0  0  0  0  0
   -9.0653   19.7596   -7.0586 C   0  0  0  0  0  0  0  0  0  0  0  0
   -9.5104   20.7646   -6.5569 O   0  0  0  0  0  0  0  0  0  0  0  0
   -8.7965   18.7446   -4.9191 C   0  0  0  0  0  0  0  0  0  0  0  0
   -8.3895   18.8766   -6.3067 O   0  0  0  0  0  0  0  0  0  0  0  0
 25 26  1  0  0  0
 26 23  1  0  0  0
 23 24  2  0  0  0
 23  1  1  0  0  0
  1  5  1  0  0  0
  1  2  1  0  0  0
  2  3  1  0  0  0
  3  4  1  0  0  0
  4  9  1  0  0  0
  4  5  2  0  0  0
  5  6  1  0  0  0
  6  7  2  0  0  0
  6  8  1  0  0  0
  8 13  1  0  0  0
  8  9  1  0  0  0
 13 18  1  0  0  0
 13 14  2  0  0  0
 14 15  1  0  0  0
 15 20  1  0  0  0
 15 16  2  0  0  0
 20 21  1  0  0  0
 20 22  2  0  0  0
 16 17  1  0  0  0
 17 18  2  0  0  0
 18 19  1  0  0  0
  9 10  2  0  0  0
  2 11  1  0  0  0
  3 12  1  0  0  0
M  CHG 1  20   1
M  CHG 1  21  -1
M  END
> <minimizedAffinity>
-7.86046

$$$$
ZINC000051050671


 33 35  0  0  0  0  0  0  0  0999 V2000
   -6.4526   15.5067   -8.1526 C   0  0  0  0  0  0  0  0  0  0  0  0
   -7.1434   16.8432   -8.2383 C   0  0  0  0  0  0  0  0  0  0  0  0
   -7.1689   17.5195   -9.4092 C   0  0  0  0  0  0  0  0  0  0  0  0
   -7.8176   18.7696   -9.4798 C   0  0  0  0  0  0  0  0  0  0  0  0
   -7.8457   19.3852  -10.5306 O   0  0  0  0  0  0  0  0  0  0  0  0
   -8.4074   19.2810   -8.3800 N   0  0  0  0  0  0  0  0  0  0  0  0
   -9.1074   20.4738   -8.1634 N   0  0  0  0  0  0  0  0  0  0  0  0
   -9.4935   20.5278   -6.9196 C   0  0  0  0  0  0  0  0  0  0  0  0
   -9.0546   19.3550   -6.2635 C   0  0  0  0  0  0  0  0  0  0  0  0
   -8.3739   18.5901   -7.2095 C   0  0  0  0  0  0  0  0  0  0  0  0
   -7.7492   17.3715   -7.1367 N   0  0  0  0  0  0  0  0  0  0  0  0
   -2.8914   13.4920   -1.1883 H   0  0  0  0  0  0  0  0  0  0  0  0
   -9.2745   19.0085   -4.8556 C   0  0  0  0  0  0  0  0  0  0  0  0
   -8.3433   19.0211   -4.0737 O   0  0  0  0  0  0  0  0  0  0  0  0
  -10.5095   18.6760   -4.4281 O   0  0  0  0  0  0  0  0  0  0  0  0
  -11.0037   17.3619   -4.7984 C   0  0  0  0  0  0  0  0  0  0  0  0
  -10.8907   16.4181   -3.5995 C   0  0  0  0  0  0  0  0  0  0  0  0
   -5.4471   13.2898  -11.0083 C   0  0  0  0  0  0  0  0  0  0  0  0
   -6.7279   12.4571  -11.1154 C   0  0  0  0  0  0  0  0  0  0  0  0
   -7.9359   13.3604  -10.8505 C   0  0  0  0  0  0  0  0  0  0  0  0
   -7.7838   14.0163   -9.4764 C   0  0  0  0  0  0  0  0  0  0  0  0
   -6.5551   14.8187   -9.4465 N   0  0  0  0  0  0  0  0  0  0  0  0
   -5.3861   13.9483   -9.6284 C   0  0  0  0  0  0  0  0  0  0  0  0
   -3.4761   14.0789  -15.5245 H   0  0  0  0  0  0  0  0  0  0  0  0
   -5.3545   15.6542  -11.7295 N   0  0  0  0  0  0  0  0  0  0  0  0
   -5.4487   14.3548  -12.0746 C   0  0  0  0  0  0  0  0  0  0  0  0
   -5.5347   14.0424  -13.2433 O   0  0  0  0  0  0  0  0  0  0  0  0
   -7.3248   17.8538  -11.7485 H   0  0  0  0  0  0  0  0  0  0  0  0
   -5.3562   16.6894  -12.7661 C   0  0  0  0  0  0  0  0  0  0  0  0
   -4.5511   17.8971  -12.2820 C   0  0  0  0  0  0  0  0  0  0  0  0
   -6.7958   17.1189  -13.0557 C   0  0  0  0  0  0  0  0  0  0  0  0
   -7.2640   19.3583  -14.0600 C   0  0  0  0  0  0  0  0  0  0  0  0
   -6.8367   17.9197  -14.3587 C   0  0  0  0  0  0  0  0  0  0  0  0
 32 33  1  0  0  0
 33 31  1  0  0  0
 31 29  1  0  0  0
 29 30  1  0  0  0
 29 25  1  0  0  0
 25 26  1  0  0  0
 26 27  2  0  0  0
 26 18  1  0  0  0
 18 23  1  0  0  0
 18 19  1  0  0  0
 19 20  1  0  0  0
 20 21  1  0  0  0
 21 22  1  0  0  0
 22  1  1  0  0  0
 22 23  1  0  0  0
  1  2  1  0  0  0
  2 11  1  0  0  0
  2  3  2  0  0  0
  3  4  1  0  0  0
  4  5  2  0  0  0
  4  6  1  0  0  0
  6 10  1  0  0  0
  6  7  1  0  0  0
  7  8  2  0  0  0
  8  9  1  0  0  0
  9 13  1  0  0  0
  9 10  2  0  0  0
 13 14  2  0  0  0
 13 15  1  0  0  0
 15 16  1  0  0  0
 16 17  1  0  0  0
 10 11  1  0  0  0
 25 28  1  0  0  0
 22 24  1  0  0  0
 11 12  1  0  0  0
M  CHG 1  22   1
M  END
> <minimizedAffinity>
-7.64701

$$$$
ZINC000100498477


 24 25  0  0  0  0  0  0  0  0999 V2000
   -6.9989   16.1464   -8.0129 C   0  0  0  0  0  0  0  0  0  0  0  0
   -6.6764   14.8960   -6.0311 O   0  0  0  0  0  0  0  0  0  0  0  0
   -6.1504   15.5234   -6.9345 C   0  0  0  0  0  0  0  0  0  0  0  0
   -4.9375   15.6426   -6.9681 O   0  0  0  0  0  0  0  0  0  0  0  0
   -6.6763   14.8968   -6.0360 H   0  0  0  0  0  0  0  0  0  0  0  0
   -6.9732   15.2969   -9.2062 N   0  0  0  0  0  0  0  0  0  0  0  0
   -7.7946   14.2319   -9.2930 C   0  0  0  0  0  0  0  0  0  0  0  0
   -8.5550   13.9767   -8.3833 O   0  0  0  0  0  0  0  0  0  0  0  0
   -6.3619   15.7240   -5.7792 H   0  0  0  0  0  0  0  0  0  0  0  0
   -7.7683   13.3581  -10.5206 C   0  0  0  0  0  0  0  0  0  0  0  0
   -8.7994   13.8596  -11.5559 C   0  0  0  0  0  0  0  0  0  0  0  0
   -8.0708   13.5752  -12.8898 C   0  0  0  0  0  0  0  0  0  0  0  0
   -6.6043   13.5748  -12.5186 C   0  0  0  0  0  0  0  0  0  0  0  0
   -5.6880   13.6672  -13.3078 O   0  0  0  0  0  0  0  0  0  0  0  0
   -6.4636   13.4559  -11.1856 N   0  0  0  0  0  0  0  0  0  0  0  0
   -9.2399   17.1843   -6.8805 H   0  0  0  0  0  0  0  0  0  0  0  0
   -6.4472   17.5305   -8.3602 C   0  0  0  0  0  0  0  0  0  0  0  0
   -7.5470   18.3768   -8.9479 C   0  0  0  0  0  0  0  0  0  0  0  0
   -8.7748   18.5705   -8.4296 C   0  0  0  0  0  0  0  0  0  0  0  0
   -9.4492   19.3860   -9.2539 N   0  0  0  0  0  0  0  0  0  0  0  0
   -8.6858   19.7049  -10.2632 C   0  0  0  0  0  0  0  0  0  0  0  0
   -7.4880   19.1010  -10.1079 N   0  0  0  0  0  0  0  0  0  0  0  0
   -3.4226   17.6232   -7.4016 H   0  0  0  0  0  0  0  0  0  0  0  0
   -3.4226   17.6232   -7.4016 H   0  0  0  0  0  0  0  0  0  0  0  0
  2  3  2  0  0  0
  3  4  1  0  0  0
  3  1  1  0  0  0
  1 17  1  0  0  0
  1  6  1  0  0  0
 17 18  1  0  0  0
 18 22  1  0  0  0
 18 19  2  0  0  0
 19 20  1  0  0  0
 20 21  2  0  0  0
 21 22  1  0  0  0
  6  7  1  0  0  0
  7  8  2  0  0  0
  7 10  1  0  0  0
 10 15  1  0  0  0
 10 11  1  0  0  0
 11 12  1  0  0  0
 12 13  1  0  0  0
 13 14  2  0  0  0
 13 15  1  0  0  0
  4  5  1  0  0  0
 20 23  1  0  0  0
 22 24  1  0  0  0
  6  9  1  0  0  0
 15 16  1  0  0  0
M  CHG 1  20   1
M  END
> <minimizedAffinity>
-6.48472

$$$$
ZINC000225825608


 28 29  0  0  0  0  0  0  0  0999 V2000
   -9.7365   16.3310   -5.0691 S   0  0  0  0  0  0  0  0  0  0  0  0
   -9.5493   15.4373   -3.9802 O   0  0  0  0  0  0  0  0  0  0  0  0
  -11.0152   16.7842   -5.4916 O   0  0  0  0  0  0  0  0  0  0  0  0
   -8.9901   15.5694   -6.4717 C   0  0  0  0  0  0  0  0  0  0  0  0
   -9.4881   14.5981   -7.1690 N   0  0  0  0  0  0  0  0  0  0  0  0
   -8.7959   14.1886   -8.1421 N   0  0  0  0  0  0  0  0  0  0  0  0
   -7.6551   14.7707   -8.3580 C   0  0  0  0  0  0  0  0  0  0  0  0
   -7.4337   15.9976   -7.1829 S   0  0  0  0  0  0  0  0  0  0  0  0
   -6.7641   14.4550   -9.3781 N   0  0  0  0  0  0  0  0  0  0  0  0
   -6.7390   15.1953  -10.5040 C   0  0  0  0  0  0  0  0  0  0  0  0
   -7.4934   16.1368  -10.6277 O   0  0  0  0  0  0  0  0  0  0  0  0
  -16.3100   20.1472   -1.9030 H   0  0  0  0  0  0  0  0  0  0  0  0
   -5.7734   14.8533  -11.6094 C   0  0  0  0  0  0  0  0  0  0  0  0
   -5.2099   16.1421  -12.2112 C   0  0  0  0  0  0  0  0  0  0  0  0
   -4.6281   14.0112  -11.0436 C   0  0  0  0  0  0  0  0  0  0  0  0
   -6.5021   14.0593  -12.6954 C   0  0  0  0  0  0  0  0  0  0  0  0
   -8.8522   17.6866   -4.7187 N   0  0  0  0  0  0  0  0  0  0  0  0
   -7.5851   24.7195   -5.4710 H   0  0  0  0  0  0  0  0  0  0  0  0
   -9.2211   20.3985   -7.1757 C   0  0  0  0  0  0  0  0  0  0  0  0
   -9.8882   21.3488   -6.4156 C   0  0  0  0  0  0  0  0  0  0  0  0
  -10.2091   21.0818   -5.0980 C   0  0  0  0  0  0  0  0  0  0  0  0
   -9.8667   19.8688   -4.5332 C   0  0  0  0  0  0  0  0  0  0  0  0
   -9.1986   18.9133   -5.2895 C   0  0  0  0  0  0  0  0  0  0  0  0
   -8.8806   19.1777   -6.6144 C   0  0  0  0  0  0  0  0  0  0  0  0
   -8.9067   20.6626   -8.4711 O   0  0  0  0  0  0  0  0  0  0  0  0
   -8.5500   19.5488   -9.2922 C   0  0  0  0  0  0  0  0  0  0  0  0
   -7.8042   19.4408  -11.6146 C   0  0  0  0  0  0  0  0  0  0  0  0
   -8.6431   19.9443  -10.7434 C   0  0  0  0  0  0  0  0  0  0  0  0
 27 28  2  0  0  0
 28 26  1  0  0  0
 26 25  1  0  0  0
 25 19  1  0  0  0
 19 24  2  0  0  0
 19 20  1  0  0  0
 20 21  2  0  0  0
 21 22  1  0  0  0
 22 23  2  0  0  0
 23 17  1  0  0  0
 23 24  1  0  0  0
 17  1  1  0  0  0
  1  2  2  0  0  0
  1  3  2  0  0  0
  1  4  1  0  0  0
  4  8  1  0  0  0
  4  5  2  0  0  0
  5  6  1  0  0  0
  6  7  2  0  0  0
  7  9  1  0  0  0
  7  8  1  0  0  0
  9 10  1  0  0  0
 10 11  2  0  0  0
 10 13  1  0  0  0
 13 14  1  0  0  0
 13 15  1  0  0  0
 13 16  1  0  0  0
 17 18  1  0  0  0
  9 12  1  0  0  0
M  END
> <minimizedAffinity>
-7.47235

$$$$
ZINC000004367929


 23 24  0  0  0  0  0  0  0  0999 V2000
   -7.8774   13.3340  -10.9933 C   0  0  0  0  0  0  0  0  0  0  0  0
   -8.5278   14.1314  -10.1967 C   0  0  0  0  0  0  0  0  0  0  0  0
   -7.9759   14.7029   -8.9262 C   0  0  0  0  0  0  0  0  0  0  0  0
   -6.4763   14.4569   -8.8126 C   0  0  0  0  0  0  0  0  0  0  0  0
   -5.6815   15.4484   -9.6495 C   0  0  0  0  0  0  0  0  0  0  0  0
   -5.9253   15.2517  -11.0809 N   0  0  0  0  0  0  0  0  0  0  0  0
   -5.5338   13.8901  -11.4739 C   0  0  0  0  0  0  0  0  0  0  0  0
   -6.4576   12.8964  -10.7375 C   0  0  0  0  0  0  0  0  0  0  0  0
   -6.1630   13.0192   -9.2377 C   0  0  0  0  0  0  0  0  0  0  0  0
   -8.5123   12.8716  -12.0996 H   0  0  0  0  0  0  0  0  0  0  0  0
   -6.0779   14.6290   -7.4133 N   0  0  0  0  0  0  0  0  0  0  0  0
   -4.9013   14.7600   -7.1269 O   0  0  0  0  0  0  0  0  0  0  0  0
   -6.9231   14.6410   -6.5365 O   0  0  0  0  0  0  0  0  0  0  0  0
   -6.2378   11.5296  -11.2169 N   0  0  0  0  0  0  0  0  0  0  0  0
   -7.1445   10.7172  -11.1775 O   0  0  0  0  0  0  0  0  0  0  0  0
   -5.1484   11.2056  -11.6548 O   0  0  0  0  0  0  0  0  0  0  0  0
   -9.2961   13.8076  -12.8389 C   0  0  0  0  0  0  0  0  0  0  0  0
   -8.5078   12.8709  -12.1018 O   0  0  0  0  0  0  0  0  0  0  0  0
   -5.1363   16.2247  -11.8483 C   0  0  0  0  0  0  0  0  0  0  0  0
   -6.0650   17.1576  -12.5820 C   0  0  0  0  0  0  0  0  0  0  0  0
   -6.1905   17.0663  -13.7913 O   0  0  0  0  0  0  0  0  0  0  0  0
   -6.6908   18.0036  -11.9663 O   0  0  0  0  0  0  0  0  0  0  0  0
   -4.9421   14.8815  -16.4158 H   0  0  0  0  0  0  0  0  0  0  0  0
 17 18  1  0  0  0
 18  1  1  0  0  0
  1  8  1  0  0  0
  1  2  2  0  0  0
  2  3  1  0  0  0
  3  4  1  0  0  0
  4  9  1  0  0  0
  4 11  1  0  0  0
  4  5  1  0  0  0
 11 12  1  0  0  0
 11 13  2  0  0  0
  5  6  1  0  0  0
  6 19  1  0  0  0
  6  7  1  0  0  0
 19 20  1  0  0  0
 20 21  2  0  0  0
 20 22  1  0  0  0
  7  8  1  0  0  0
  8 14  1  0  0  0
  8  9  1  0  0  0
 14 15  1  0  0  0
 14 16  2  0  0  0
  6 10  1  0  0  0
 22 23  1  0  0  0
M  CHG 1   6   1
M  CHG 1  11   1
M  CHG 1  12  -1
M  CHG 1  14   1
M  CHG 1  15  -1
M  END
> <minimizedAffinity>
-7.03534

$$$$
ZINC000046405471


 27 29  0  0  0  0  0  0  0  0999 V2000
   -6.0056   16.6678  -10.9024 C   0  0  0  0  0  0  0  0  0  0  0  0
   -6.2340   16.3059   -9.5876 C   0  0  0  0  0  0  0  0  0  0  0  0
   -7.1044   17.0425   -8.8081 C   0  0  0  0  0  0  0  0  0  0  0  0
   -7.7506   18.1478   -9.3464 C   0  0  0  0  0  0  0  0  0  0  0  0
   -7.5188   18.5087  -10.6679 C   0  0  0  0  0  0  0  0  0  0  0  0
   -6.6433   17.7710  -11.4400 C   0  0  0  0  0  0  0  0  0  0  0  0
   -8.6311   18.8951   -8.5608 N   0  0  0  0  0  0  0  0  0  0  0  0
   -9.1895   18.3443   -7.3157 C   0  0  0  0  0  0  0  0  0  0  0  0
   -8.9727   19.3671   -6.1946 C   0  0  0  0  0  0  0  0  0  0  0  0
   -9.4810   20.6368   -6.6113 O   0  0  0  0  0  0  0  0  0  0  0  0
   -8.8186   21.1864   -7.7527 C   0  0  0  0  0  0  0  0  0  0  0  0
   -9.0230   20.2589   -8.9507 C   0  0  0  0  0  0  0  0  0  0  0  0
   -6.3910   18.1621  -12.8733 C   0  0  0  0  0  0  0  0  0  0  0  0
   -5.0349   18.4604  -13.0435 F   0  0  0  0  0  0  0  0  0  0  0  0
   -6.7444   17.1020  -13.7150 F   0  0  0  0  0  0  0  0  0  0  0  0
   -7.1595   19.2868  -13.1921 F   0  0  0  0  0  0  0  0  0  0  0  0
   -5.0549   15.8621  -11.7496 C   0  0  0  0  0  0  0  0  0  0  0  0
   -5.5426   13.6441  -13.2016 O   0  0  0  0  0  0  0  0  0  0  0  0
   -5.2420   13.4504  -12.0428 C   0  0  0  0  0  0  0  0  0  0  0  0
   -4.9785   14.4939  -11.2315 N   0  0  0  0  0  0  0  0  0  0  0  0
   -5.5518   13.6419  -13.1954 H   0  0  0  0  0  0  0  0  0  0  0  0
   -5.1695   12.0433  -11.5082 C   0  0  0  0  0  0  0  0  0  0  0  0
   -5.5402   11.8255  -10.0397 C   0  0  0  0  0  0  0  0  0  0  0  0
   -6.4878   11.3561  -11.1465 C   0  0  0  0  0  0  0  0  0  0  0  0
   -7.7240   12.1164  -11.3460 N   0  0  0  0  0  0  0  0  0  0  0  0
   -8.2816   12.0989  -12.4288 O   0  0  0  0  0  0  0  0  0  0  0  0
   -8.1942   12.7659  -10.4294 O   0  0  0  0  0  0  0  0  0  0  0  0
 18 19  2  0  0  0
 19 20  1  0  0  0
 19 22  1  0  0  0
 20 17  1  0  0  0
 17  1  1  0  0  0
  1  6  1  0  0  0
  1  2  2  0  0  0
  2  3  1  0  0  0
  3  4  2  0  0  0
  4  7  1  0  0  0
  4  5  1  0  0  0
  7 12  1  0  0  0
  7  8  1  0  0  0
  8  9  1  0  0  0
  9 10  1  0  0  0
 10 11  1  0  0  0
 11 12  1  0  0  0
  5  6  2  0  0  0
  6 13  1  0  0  0
 13 14  1  0  0  0
 13 15  1  0  0  0
 13 16  1  0  0  0
 22 24  1  0  0  0
 22 23  1  0  0  0
 23 24  1  0  0  0
 24 25  1  0  0  0
 25 26  1  0  0  0
 25 27  2  0  0  0
 20 21  1  0  0  0
M  CHG 1  25   1
M  CHG 1  26  -1
M  END
> <minimizedAffinity>
-8.43095

$$$$
ZINC000104116886


 24 24  0  0  0  0  0  0  0  0999 V2000
   -7.2609   17.8775   -9.6740 C   0  0  0  0  0  0  0  0  0  0  0  0
   -8.1225   18.3654   -8.8166 N   0  0  0  0  0  0  0  0  0  0  0  0
   -7.2161   18.4020  -11.0592 C   0  0  0  0  0  0  0  0  0  0  0  0
   -6.3862   17.8047  -12.0075 C   0  0  0  0  0  0  0  0  0  0  0  0
   -6.3487   18.2976  -13.2957 C   0  0  0  0  0  0  0  0  0  0  0  0
   -7.1322   19.3822  -13.6475 C   0  0  0  0  0  0  0  0  0  0  0  0
   -7.9572   19.9793  -12.7110 C   0  0  0  0  0  0  0  0  0  0  0  0
   -8.0079   19.4914  -11.4213 C   0  0  0  0  0  0  0  0  0  0  0  0
   -6.7252   15.5692   -9.2939 N   0  0  0  0  0  0  0  0  0  0  0  0
   -6.3386   16.8100   -9.2625 C   0  0  0  0  0  0  0  0  0  0  0  0
   -7.8700   15.2103  -10.0172 N   0  0  0  0  0  0  0  0  0  0  0  0
   -6.1126   12.5049   -8.9317 H   0  0  0  0  0  0  0  0  0  0  0  0
   -7.7915   14.2711  -10.9807 C   0  0  0  0  0  0  0  0  0  0  0  0
   -7.1380   12.7299  -10.6226 S   0  0  0  0  0  0  0  0  0  0  0  0
   -9.3153   13.7575  -12.8114 C   0  0  0  0  0  0  0  0  0  0  0  0
   -8.2276   14.5454  -12.2261 N   0  0  0  0  0  0  0  0  0  0  0  0
   -5.9233   13.8329  -13.5213 H   0  0  0  0  0  0  0  0  0  0  0  0
   -7.9604   18.1237   -7.4462 N   0  0  0  0  0  0  0  0  0  0  0  0
   -5.4173   16.9629   -5.1919 H   0  0  0  0  0  0  0  0  0  0  0  0
   -9.0141   18.2339   -6.6132 C   0  0  0  0  0  0  0  0  0  0  0  0
   -9.3304   19.7203   -5.8249 S   0  0  0  0  0  0  0  0  0  0  0  0
   -9.8189   17.1738   -6.4008 N   0  0  0  0  0  0  0  0  0  0  0  0
   -9.3342   15.8192   -6.6771 C   0  0  0  0  0  0  0  0  0  0  0  0
   -6.7975   21.4594   -7.7337 H   0  0  0  0  0  0  0  0  0  0  0  0
 15 16  1  0  0  0
 16 13  1  0  0  0
 13 14  2  0  0  0
 13 11  1  0  0  0
 11  9  1  0  0  0
  9 10  2  0  0  0
 10  1  1  0  0  0
  1  2  2  0  0  0
  1  3  1  0  0  0
  2 18  1  0  0  0
 18 20  1  0  0  0
 20 21  2  0  0  0
 20 22  1  0  0  0
 22 23  1  0  0  0
  3  8  2  0  0  0
  3  4  1  0  0  0
  4  5  2  0  0  0
  5  6  1  0  0  0
  6  7  2  0  0  0
  7  8  1  0  0  0
 16 17  1  0  0  0
 11 12  1  0  0  0
 18 19  1  0  0  0
 22 24  1  0  0  0
M  END
> <minimizedAffinity>
-6.04242

$$$$
ZINC000588227692


 25 28  0  0  0  0  0  0  0  0999 V2000
   -7.1733   18.2123  -11.5532 C   0  0  0  0  0  0  0  0  0  0  0  0
   -7.1863   17.4255  -10.5028 N   0  0  0  0  0  0  0  0  0  0  0  0
   -7.6489   17.7865   -9.3574 N   0  0  0  0  0  0  0  0  0  0  0  0
   -8.1481   19.0179   -9.1968 C   0  0  0  0  0  0  0  0  0  0  0  0
   -8.1625   19.9450  -10.3328 C   0  0  0  0  0  0  0  0  0  0  0  0
   -8.6077   21.0733  -10.2268 O   0  0  0  0  0  0  0  0  0  0  0  0
   -7.6517   19.4922  -11.5054 N   0  0  0  0  0  0  0  0  0  0  0  0
   -8.6647   19.3977   -7.8876 C   0  0  0  0  0  0  0  0  0  0  0  0
   -9.2040   20.6585   -7.6268 C   0  0  0  0  0  0  0  0  0  0  0  0
   -9.6704   20.9455   -6.3758 C   0  0  0  0  0  0  0  0  0  0  0  0
   -9.6150   19.9983   -5.3580 C   0  0  0  0  0  0  0  0  0  0  0  0
   -9.0938   18.7575   -5.5794 C   0  0  0  0  0  0  0  0  0  0  0  0
   -8.6065   18.4282   -6.8512 C   0  0  0  0  0  0  0  0  0  0  0  0
   -8.0842   17.2260   -7.1243 N   0  0  0  0  0  0  0  0  0  0  0  0
   -7.6316   16.9252   -8.3187 C   0  0  0  0  0  0  0  0  0  0  0  0
   -5.3383   16.1821  -12.2851 H   0  0  0  0  0  0  0  0  0  0  0  0
   -7.0695   15.5727   -8.5368 C   0  0  0  0  0  0  0  0  0  0  0  0
   -5.6867   15.3635   -8.5035 C   0  0  0  0  0  0  0  0  0  0  0  0
   -5.2119   14.0803   -8.7130 C   0  0  0  0  0  0  0  0  0  0  0  0
   -6.1111   13.0558   -8.9463 C   0  0  0  0  0  0  0  0  0  0  0  0
   -7.4105   13.2831   -8.9725 N   0  0  0  0  0  0  0  0  0  0  0  0
   -7.9102   14.4851   -8.7732 C   0  0  0  0  0  0  0  0  0  0  0  0
   -6.5128   17.6030  -13.0688 S   0  0  0  0  0  0  0  0  0  0  0  0
   -5.6347   15.1115  -12.3727 C   0  0  0  0  0  0  0  0  0  0  0  0
   -5.1707   16.5681  -12.4334 C   0  0  0  0  0  0  0  0  0  0  0  0
 24 25  1  0  0  0
 25 23  1  0  0  0
 23  1  1  0  0  0
  1  7  1  0  0  0
  1  2  2  0  0  0
  2  3  1  0  0  0
  3 15  2  0  0  0
  3  4  1  0  0  0
  4  5  1  0  0  0
  4  8  2  0  0  0
  5  6  2  0  0  0
  5  7  1  0  0  0
  8 13  1  0  0  0
  8  9  1  0  0  0
  9 10  2  0  0  0
 10 11  1  0  0  0
 11 12  2  0  0  0
 12 13  1  0  0  0
 13 14  2  0  0  0
 14 15  1  0  0  0
 15 17  1  0  0  0
 17 22  1  0  0  0
 17 18  2  0  0  0
 18 19  1  0  0  0
 19 20  2  0  0  0
 20 21  1  0  0  0
 21 22  2  0  0  0
  7 16  1  0  0  0
M  CHG 1   3   1
M  END
> <minimizedAffinity>
-8.73120

$$$$
ZINC000000384621


 20 21  0  0  0  0  0  0  0  0999 V2000
   -7.5583   14.5363   -8.4378 S   0  0  0  0  0  0  0  0  0  0  0  0
   -8.8395   14.4857   -7.8253 O   0  0  0  0  0  0  0  0  0  0  0  0
   -6.4672   13.7247   -8.0255 O   0  0  0  0  0  0  0  0  0  0  0  0
   -6.7218   14.0451  -10.9939 C   0  0  0  0  0  0  0  0  0  0  0  0
   -6.9225   13.7788  -12.3401 C   0  0  0  0  0  0  0  0  0  0  0  0
   -8.2068   13.6720  -12.8386 C   0  0  0  0  0  0  0  0  0  0  0  0
   -9.2928   13.8309  -11.9950 C   0  0  0  0  0  0  0  0  0  0  0  0
  -10.5479   13.7263  -12.4837 F   0  0  0  0  0  0  0  0  0  0  0  0
   -9.0938   14.0964  -10.6506 C   0  0  0  0  0  0  0  0  0  0  0  0
   -7.8111   14.1984  -10.1486 C   0  0  0  0  0  0  0  0  0  0  0  0
   -4.4055   13.6011  -11.2964 C   0  0  0  0  0  0  0  0  0  0  0  0
   -5.4588   14.1505  -10.5022 O   0  0  0  0  0  0  0  0  0  0  0  0
   -7.0447   16.1061   -8.3189 N   0  0  0  0  0  0  0  0  0  0  0  0
   -5.8678   16.4324   -7.5096 C   0  0  0  0  0  0  0  0  0  0  0  0
   -7.7671   17.1686   -9.0228 C   0  0  0  0  0  0  0  0  0  0  0  0
   -8.1249   18.2820   -8.0363 C   0  0  0  0  0  0  0  0  0  0  0  0
   -8.8794   19.3916   -8.7715 C   0  0  0  0  0  0  0  0  0  0  0  0
   -7.9948   19.9598   -9.8831 C   0  0  0  0  0  0  0  0  0  0  0  0
   -7.6370   18.8462  -10.8696 C   0  0  0  0  0  0  0  0  0  0  0  0
   -6.8825   17.7367  -10.1344 C   0  0  0  0  0  0  0  0  0  0  0  0
 11 12  1  0  0  0
 12  4  1  0  0  0
  4 10  2  0  0  0
  4  5  1  0  0  0
  5  6  2  0  0  0
  6  7  1  0  0  0
  7  8  1  0  0  0
  7  9  2  0  0  0
  9 10  1  0  0  0
 10  1  1  0  0  0
  1  2  2  0  0  0
  1  3  2  0  0  0
  1 13  1  0  0  0
 13 14  1  0  0  0
 13 15  1  0  0  0
 15 20  1  0  0  0
 15 16  1  0  0  0
 16 17  1  0  0  0
 17 18  1  0  0  0
 18 19  1  0  0  0
 19 20  1  0  0  0
M  END
> <minimizedAffinity>
-6.73424

$$$$
ZINC000004138684


 27 29  0  0  0  0  0  0  0  0999 V2000
   -6.6829   17.7856   -9.6220 N   0  0  0  0  0  0  0  0  0  0  0  0
   -7.8331   18.4004   -9.5619 C   0  0  0  0  0  0  0  0  0  0  0  0
   -6.6411   13.4932  -11.2917 C   0  0  0  0  0  0  0  0  0  0  0  0
   -6.9796   14.8084  -10.0743 S   0  0  0  0  0  0  0  0  0  0  0  0
   -6.2983   16.1025  -11.0757 C   0  0  0  0  0  0  0  0  0  0  0  0
   -6.2281   17.3778  -10.7581 N   0  0  0  0  0  0  0  0  0  0  0  0
   -5.8582   15.5326  -12.2393 N   0  0  0  0  0  0  0  0  0  0  0  0
   -5.9878   14.2318  -12.4367 C   0  0  0  0  0  0  0  0  0  0  0  0
   -5.6141   13.6789  -13.4491 O   0  0  0  0  0  0  0  0  0  0  0  0
   -7.5650   11.8864   -9.3955 H   0  0  0  0  0  0  0  0  0  0  0  0
   -5.6852   12.4513  -10.7072 C   0  0  0  0  0  0  0  0  0  0  0  0
   -5.5378   10.0905  -10.7102 O   0  0  0  0  0  0  0  0  0  0  0  0
   -6.1239   11.0734  -11.1310 C   0  0  0  0  0  0  0  0  0  0  0  0
   -7.0681   10.9411  -11.8909 O   0  0  0  0  0  0  0  0  0  0  0  0
   -5.5398   10.0950  -10.7089 H   0  0  0  0  0  0  0  0  0  0  0  0
   -8.3517   18.8654   -8.2662 C   0  0  0  0  0  0  0  0  0  0  0  0
   -8.9893   20.1070   -8.1705 C   0  0  0  0  0  0  0  0  0  0  0  0
   -9.4732   20.5385   -6.9555 C   0  0  0  0  0  0  0  0  0  0  0  0
   -9.3285   19.7419   -5.8243 C   0  0  0  0  0  0  0  0  0  0  0  0
   -8.6955   18.5065   -5.9150 C   0  0  0  0  0  0  0  0  0  0  0  0
   -8.2137   18.0648   -7.1272 C   0  0  0  0  0  0  0  0  0  0  0  0
   -9.8198   20.1832   -4.5954 N   0  0  0  0  0  0  0  0  0  0  0  0
   -9.7473   21.6481   -4.4942 C   0  0  0  0  0  0  0  0  0  0  0  0
  -10.3498   22.0924   -3.1587 C   0  0  0  0  0  0  0  0  0  0  0  0
   -9.6588   21.4410   -2.0895 O   0  0  0  0  0  0  0  0  0  0  0  0
   -9.7094   20.0134   -2.1563 C   0  0  0  0  0  0  0  0  0  0  0  0
   -9.1005   19.5479   -3.4816 C   0  0  0  0  0  0  0  0  0  0  0  0
 12 13  2  0  0  0
 13 14  1  0  0  0
 13 11  1  0  0  0
 11  3  1  0  0  0
  3  8  1  0  0  0
  3  4  1  0  0  0
  4  5  1  0  0  0
  5  6  2  0  0  0
  5  7  1  0  0  0
  6  1  1  0  0  0
  1  2  2  0  0  0
  2 16  1  0  0  0
 16 21  1  0  0  0
 16 17  2  0  0  0
 17 18  1  0  0  0
 18 19  2  0  0  0
 19 22  1  0  0  0
 19 20  1  0  0  0
 22 27  1  0  0  0
 22 23  1  0  0  0
 23 24  1  0  0  0
 24 25  1  0  0  0
 25 26  1  0  0  0
 26 27  1  0  0  0
 20 21  2  0  0  0
  7  8  1  0  0  0
  8  9  2  0  0  0
 14 15  1  0  0  0
  7 10  1  0  0  0
M  END
> <minimizedAffinity>
-7.94423

$$$$
ZINC000004269550


 30 34  0  0  0  0  0  0  0  0999 V2000
   -7.1507   15.2623  -11.0699 C   0  0  0  0  0  0  0  0  0  0  0  0
   -8.1175   15.0962   -9.8972 C   0  0  0  0  0  0  0  0  0  0  0  0
   -8.1357   16.1849   -8.8477 C   0  0  0  0  0  0  0  0  0  0  0  0
   -9.3332   16.7361   -8.4420 C   0  0  0  0  0  0  0  0  0  0  0  0
   -9.3453   17.7320   -7.4817 C   0  0  0  0  0  0  0  0  0  0  0  0
   -8.1585   18.1749   -6.9282 C   0  0  0  0  0  0  0  0  0  0  0  0
   -6.9569   17.6254   -7.3320 C   0  0  0  0  0  0  0  0  0  0  0  0
   -6.9406   16.6264   -8.2944 C   0  0  0  0  0  0  0  0  0  0  0  0
   -5.7542   16.0874   -8.6913 O   0  0  0  0  0  0  0  0  0  0  0  0
   -5.7701   14.7538   -8.9342 C   0  0  0  0  0  0  0  0  0  0  0  0
   -5.0120   13.9903   -8.3841 O   0  0  0  0  0  0  0  0  0  0  0  0
   -6.8187   14.2627   -9.9586 C   0  0  0  0  0  0  0  0  0  0  0  0
   -6.8741   12.7775  -10.2080 C   0  0  0  0  0  0  0  0  0  0  0  0
   -7.6254   12.0812   -9.5586 O   0  0  0  0  0  0  0  0  0  0  0  0
   -6.0888   12.2230  -11.1525 N   0  0  0  0  0  0  0  0  0  0  0  0
   -5.0814   13.0239  -11.8659 C   0  0  0  0  0  0  0  0  0  0  0  0
   -3.7409   12.2830  -11.8022 C   0  0  0  0  0  0  0  0  0  0  0  0
   -3.9233   10.9402  -12.2576 O   0  0  0  0  0  0  0  0  0  0  0  0
   -4.8175   10.1661  -11.4546 C   0  0  0  0  0  0  0  0  0  0  0  0
   -6.2093   10.7974  -11.4966 C   0  0  0  0  0  0  0  0  0  0  0  0
   -8.9961   14.1242  -12.3115 C   0  0  0  0  0  0  0  0  0  0  0  0
   -7.5806   14.6941  -12.4238 C   0  0  0  0  0  0  0  0  0  0  0  0
   -6.3410   16.5320  -11.1263 C   0  0  0  0  0  0  0  0  0  0  0  0
   -5.1994   16.5418  -10.7177 O   0  0  0  0  0  0  0  0  0  0  0  0
   -6.9358   17.7603  -11.6773 C   0  0  0  0  0  0  0  0  0  0  0  0
   -7.7180   18.5878  -10.8653 C   0  0  0  0  0  0  0  0  0  0  0  0
   -8.2719   19.7368  -11.3889 C   0  0  0  0  0  0  0  0  0  0  0  0
   -8.0560   20.0717  -12.7144 C   0  0  0  0  0  0  0  0  0  0  0  0
   -7.2832   19.2578  -13.5243 C   0  0  0  0  0  0  0  0  0  0  0  0
   -6.7172   18.1088  -13.0139 C   0  0  0  0  0  0  0  0  0  0  0  0
 21 22  1  0  0  0
  1 22  1  0  0  0
  1 12  1  0  0  0
  1 23  1  0  0  0
  1  2  1  0  0  0
 23 24  2  0  0  0
 23 25  1  0  0  0
 25 30  1  0  0  0
 25 26  2  0  0  0
 26 27  1  0  0  0
 27 28  2  0  0  0
 28 29  1  0  0  0
 29 30  2  0  0  0
  2 12  1  0  0  0
  2  3  1  0  0  0
  3  8  1  0  0  0
  3  4  2  0  0  0
  4  5  1  0  0  0
  5  6  2  0  0  0
  6  7  1  0  0  0
  7  8  2  0  0  0
  8  9  1  0  0  0
  9 10  1  0  0  0
 10 11  2  0  0  0
 10 12  1  0  0  0
 12 13  1  0  0  0
 13 14  2  0  0  0
 13 15  1  0  0  0
 15 20  1  0  0  0
 15 16  1  0  0  0
 16 17  1  0  0  0
 17 18  1  0  0  0
 18 19  1  0  0  0
 19 20  1  0  0  0
M  END
> <minimizedAffinity>
-8.84790

$$$$
ZINC000328990323


 33 35  0  0  0  0  0  0  0  0999 V2000
   -9.0874   19.6247   -8.3257 C   0  0  0  0  0  0  0  0  0  0  0  0
   -9.1443   20.2879   -7.1821 N   0  0  0  0  0  0  0  0  0  0  0  0
   -9.3675   19.6499   -6.0331 C   0  0  0  0  0  0  0  0  0  0  0  0
   -9.5412   18.2691   -6.0488 C   0  0  0  0  0  0  0  0  0  0  0  0
   -9.4740   17.6061   -7.2748 C   0  0  0  0  0  0  0  0  0  0  0  0
   -9.2533   18.3112   -8.3798 N   0  0  0  0  0  0  0  0  0  0  0  0
   -9.4303   20.4016   -4.7549 C   0  0  0  0  0  0  0  0  0  0  0  0
   -9.0479   19.8038   -3.5512 C   0  0  0  0  0  0  0  0  0  0  0  0
   -9.1221   20.5390   -2.3851 C   0  0  0  0  0  0  0  0  0  0  0  0
   -9.5467   21.7875   -2.3979 N   0  0  0  0  0  0  0  0  0  0  0  0
   -9.9168   22.3885   -3.5120 C   0  0  0  0  0  0  0  0  0  0  0  0
   -9.8680   21.7282   -4.7232 C   0  0  0  0  0  0  0  0  0  0  0  0
   -8.8536   20.3227   -9.4979 N   0  0  0  0  0  0  0  0  0  0  0  0
   -7.7216   20.8016  -14.2372 H   0  0  0  0  0  0  0  0  0  0  0  0
   -8.4954   19.6008  -10.7213 C   0  0  0  0  0  0  0  0  0  0  0  0
   -7.0816   19.0326  -10.5829 C   0  0  0  0  0  0  0  0  0  0  0  0
   -7.0003   17.6858  -11.3042 C   0  0  0  0  0  0  0  0  0  0  0  0
   -4.9873   16.6487  -12.0962 C   0  0  0  0  0  0  0  0  0  0  0  0
   -5.9444   17.7396  -12.3242 N   0  0  0  0  0  0  0  0  0  0  0  0
   -6.5436   17.5947  -13.6575 C   0  0  0  0  0  0  0  0  0  0  0  0
   -5.9417   17.7372  -12.3207 H   0  0  0  0  0  0  0  0  0  0  0  0
   -9.6408   16.2322   -7.3402 N   0  0  0  0  0  0  0  0  0  0  0  0
  -15.9728   21.5185   -9.2950 H   0  0  0  0  0  0  0  0  0  0  0  0
   -8.5295   15.3422   -6.9954 C   0  0  0  0  0  0  0  0  0  0  0  0
   -7.8982   14.8144   -8.2580 C   0  0  0  0  0  0  0  0  0  0  0  0
   -8.6689   14.6271   -9.3900 C   0  0  0  0  0  0  0  0  0  0  0  0
   -8.0898   14.1430  -10.5483 C   0  0  0  0  0  0  0  0  0  0  0  0
   -6.7401   13.8466  -10.5744 C   0  0  0  0  0  0  0  0  0  0  0  0
   -5.9689   14.0349   -9.4424 C   0  0  0  0  0  0  0  0  0  0  0  0
   -6.5470   14.5229   -8.2857 C   0  0  0  0  0  0  0  0  0  0  0  0
   -5.7215   14.7244   -7.0738 N   0  0  0  0  0  0  0  0  0  0  0  0
   -5.0356   15.7249   -6.9635 O   0  0  0  0  0  0  0  0  0  0  0  0
   -5.7280   13.8897   -6.1867 O   0  0  0  0  0  0  0  0  0  0  0  0
 18 19  1  0  0  0
 19 20  1  0  0  0
 19 17  1  0  0  0
 17 16  1  0  0  0
 16 15  1  0  0  0
 15 13  1  0  0  0
 13  1  1  0  0  0
  1  6  2  0  0  0
  1  2  1  0  0  0
  2  3  2  0  0  0
  3  7  1  0  0  0
  3  4  1  0  0  0
  7 12  1  0  0  0
  7  8  2  0  0  0
  8  9  1  0  0  0
  9 10  2  0  0  0
 10 11  1  0  0  0
 11 12  2  0  0  0
  4  5  2  0  0  0
  5 22  1  0  0  0
  5  6  1  0  0  0
 22 24  1  0  0  0
 24 25  1  0  0  0
 25 30  1  0  0  0
 25 26  2  0  0  0
 26 27  1  0  0  0
 27 28  2  0  0  0
 28 29  1  0  0  0
 29 30  2  0  0  0
 30 31  1  0  0  0
 31 32  1  0  0  0
 31 33  2  0  0  0
 19 21  1  0  0  0
 13 14  1  0  0  0
 22 23  1  0  0  0
M  CHG 1  19   1
M  CHG 1  31   1
M  CHG 1  32  -1
M  END
> <minimizedAffinity>
-7.98757

$$$$
ZINC000005540777


 25 26  0  0  0  0  0  0  0  0999 V2000
   -7.6556   19.9009  -13.3867 N   0  0  0  0  0  0  0  0  0  0  0  0
   -7.1851   18.8697  -12.6071 C   0  0  0  0  0  0  0  0  0  0  0  0
   -6.4047   17.9362  -13.1358 N   0  0  0  0  0  0  0  0  0  0  0  0
   -5.9434   16.9333  -12.3906 C   0  0  0  0  0  0  0  0  0  0  0  0
   -5.2271   16.0876  -12.8999 O   0  0  0  0  0  0  0  0  0  0  0  0
   -6.2545   16.8380  -11.0848 N   0  0  0  0  0  0  0  0  0  0  0  0
   -7.0529   17.7730  -10.4973 C   0  0  0  0  0  0  0  0  0  0  0  0
   -7.5250   18.8019  -11.2403 C   0  0  0  0  0  0  0  0  0  0  0  0
   -7.1955   18.8653  -12.6136 H   0  0  0  0  0  0  0  0  0  0  0  0
   -7.1955   18.8653  -12.6136 H   0  0  0  0  0  0  0  0  0  0  0  0
   -5.7316   15.7235  -10.2906 C   0  0  0  0  0  0  0  0  0  0  0  0
   -5.7787   16.0436   -8.8831 O   0  0  0  0  0  0  0  0  0  0  0  0
   -5.7306   14.7710   -8.2017 C   0  0  0  0  0  0  0  0  0  0  0  0
   -6.6376   13.8411   -9.0378 C   0  0  0  0  0  0  0  0  0  0  0  0
   -7.9600   13.8127   -8.4968 O   0  0  0  0  0  0  0  0  0  0  0  0
   -6.6366   14.4812  -10.4460 C   0  0  0  0  0  0  0  0  0  0  0  0
   -7.9601   14.8685  -10.8209 O   0  0  0  0  0  0  0  0  0  0  0  0
   -7.2224   18.8540  -12.6118 H   0  0  0  0  0  0  0  0  0  0  0  0
   -7.2224   18.8540  -12.6118 H   0  0  0  0  0  0  0  0  0  0  0  0
   -6.2731   14.9085   -6.7777 C   0  0  0  0  0  0  0  0  0  0  0  0
   -5.7878   13.8292   -5.9768 O   0  0  0  0  0  0  0  0  0  0  0  0
   -0.2836   17.2372   -9.8121 H   0  0  0  0  0  0  0  0  0  0  0  0
   -8.3938   19.8329  -10.6300 N   0  0  0  0  0  0  0  0  0  0  0  0
   -8.0083   20.9856  -10.5514 O   0  0  0  0  0  0  0  0  0  0  0  0
   -9.4945   19.5288  -10.2062 O   0  0  0  0  0  0  0  0  0  0  0  0
  1  2  1  0  0  0
  2  8  1  0  0  0
  2  3  2  0  0  0
  3  4  1  0  0  0
  4  5  2  0  0  0
  4  6  1  0  0  0
  6 11  1  0  0  0
  6  7  1  0  0  0
 11 16  1  0  0  0
 11 12  1  0  0  0
 12 13  1  0  0  0
 13 20  1  0  0  0
 13 14  1  0  0  0
 20 21  1  0  0  0
 14 15  1  0  0  0
 14 16  1  0  0  0
 16 17  1  0  0  0
  7  8  2  0  0  0
  8 23  1  0  0  0
 23 24  1  0  0  0
 23 25  2  0  0  0
  1  9  1  0  0  0
  1 10  1  0  0  0
 21 22  1  0  0  0
 15 18  1  0  0  0
 17 19  1  0  0  0
M  CHG 1  23   1
M  CHG 1  24  -1
M  END
> <minimizedAffinity>
-7.16391

$$$$
ZINC000001713444


 21 22  0  0  0  0  0  0  0  0999 V2000
   -8.3244   15.0027   -8.2167 C   0  0  0  0  0  0  0  0  0  0  0  0
   -9.1685   14.2756   -7.7386 O   0  0  0  0  0  0  0  0  0  0  0  0
   -8.3389   16.3225   -7.9438 N   0  0  0  0  0  0  0  0  0  0  0  0
   -9.2918   16.8338   -7.1393 C   0  0  0  0  0  0  0  0  0  0  0  0
  -10.1377   16.1050   -6.6602 O   0  0  0  0  0  0  0  0  0  0  0  0
   -7.4640   12.9833   -9.2558 H   0  0  0  0  0  0  0  0  0  0  0  0
   -9.3077   18.2808   -6.8401 C   0  0  0  0  0  0  0  0  0  0  0  0
   -9.1795   19.2118   -7.8727 C   0  0  0  0  0  0  0  0  0  0  0  0
   -9.1956   20.5611   -7.5864 C   0  0  0  0  0  0  0  0  0  0  0  0
   -9.3385   20.9926   -6.2794 C   0  0  0  0  0  0  0  0  0  0  0  0
   -9.4655   20.0753   -5.2514 C   0  0  0  0  0  0  0  0  0  0  0  0
   -9.4569   18.7230   -5.5243 C   0  0  0  0  0  0  0  0  0  0  0  0
   -7.2591   14.4310   -9.1162 C   0  0  0  0  0  0  0  0  0  0  0  0
   -8.5692   14.0510  -11.2558 C   0  0  0  0  0  0  0  0  0  0  0  0
   -7.5496   14.7896  -10.5065 N   0  0  0  0  0  0  0  0  0  0  0  0
   -6.8546   15.8356  -11.1179 C   0  0  0  0  0  0  0  0  0  0  0  0
   -7.3970   17.1142  -11.1373 C   0  0  0  0  0  0  0  0  0  0  0  0
   -6.7070   18.1463  -11.7422 C   0  0  0  0  0  0  0  0  0  0  0  0
   -5.4775   17.9078  -12.3286 C   0  0  0  0  0  0  0  0  0  0  0  0
   -4.9346   16.6361  -12.3110 C   0  0  0  0  0  0  0  0  0  0  0  0
   -5.6167   15.6007  -11.7028 C   0  0  0  0  0  0  0  0  0  0  0  0
 14 15  1  0  0  0
 15 13  1  0  0  0
 15 16  1  0  0  0
 13  1  1  0  0  0
  1  2  2  0  0  0
  1  3  1  0  0  0
  3  4  1  0  0  0
  4  5  2  0  0  0
  4  7  1  0  0  0
  7 12  1  0  0  0
  7  8  2  0  0  0
  8  9  1  0  0  0
  9 10  2  0  0  0
 10 11  1  0  0  0
 11 12  2  0  0  0
 16 21  1  0  0  0
 16 17  2  0  0  0
 17 18  1  0  0  0
 18 19  2  0  0  0
 19 20  1  0  0  0
 20 21  2  0  0  0
  3  6  1  0  0  0
M  END
> <minimizedAffinity>
-7.63504

$$$$
ZINC000247343899


 35 34  0  0  0  0  0  0  0  0999 V2000
   -9.0429   16.6613   -6.3824 C   0  0  0  0  0  0  0  0  0  0  0  0
   -9.3179   16.7847   -4.9486 N   0  0  0  0  0  0  0  0  0  0  0  0
  -10.5904   16.8546   -4.5101 C   0  0  0  0  0  0  0  0  0  0  0  0
  -11.5078   16.8154   -5.3023 O   0  0  0  0  0  0  0  0  0  0  0  0
   -9.9801   16.4639  -12.8010 H   0  0  0  0  0  0  0  0  0  0  0  0
  -10.8732   16.9815   -3.0353 C   0  0  0  0  0  0  0  0  0  0  0  0
  -10.2536   15.8998   -2.3366 O   0  0  0  0  0  0  0  0  0  0  0  0
  -10.9441   14.6551   -2.4626 C   0  0  0  0  0  0  0  0  0  0  0  0
   -9.9792   13.5868   -2.9808 C   0  0  0  0  0  0  0  0  0  0  0  0
  -10.2187   13.3629   -4.3716 O   0  0  0  0  0  0  0  0  0  0  0  0
  -21.7198   10.1723   -2.9943 H   0  0  0  0  0  0  0  0  0  0  0  0
   -8.5112   15.2819   -6.6749 C   0  0  0  0  0  0  0  0  0  0  0  0
   -7.5451   14.8679   -6.0791 O   0  0  0  0  0  0  0  0  0  0  0  0
   -9.1110   14.5132   -7.5975 O   0  0  0  0  0  0  0  0  0  0  0  0
   -9.0068   14.9412   -8.9811 C   0  0  0  0  0  0  0  0  0  0  0  0
   -7.7641   14.3146   -9.6166 C   0  0  0  0  0  0  0  0  0  0  0  0
   -7.5428   13.0197   -9.0540 O   0  0  0  0  0  0  0  0  0  0  0  0
   -6.6094   12.2208   -9.7837 C   0  0  0  0  0  0  0  0  0  0  0  0
   -8.1954   11.0703  -11.1088 O   0  0  0  0  0  0  0  0  0  0  0  0
   -7.2223   11.8048  -11.0960 C   0  0  0  0  0  0  0  0  0  0  0  0
   -6.7480   12.2066  -12.1449 O   0  0  0  0  0  0  0  0  0  0  0  0
   -8.1933   11.0744  -11.1067 H   0  0  0  0  0  0  0  0  0  0  0  0
   -8.0042   17.7063   -6.7944 C   0  0  0  0  0  0  0  0  0  0  0  0
   -8.7093   19.0230   -7.1262 C   0  0  0  0  0  0  0  0  0  0  0  0
   -9.4450   18.8851   -8.4606 C   0  0  0  0  0  0  0  0  0  0  0  0
   -8.5029   18.4511   -9.4952 N   0  0  0  0  0  0  0  0  0  0  0  0
   -8.2276   19.2595  -10.5379 C   0  0  0  0  0  0  0  0  0  0  0  0
   -8.7598   20.3462  -10.6198 O   0  0  0  0  0  0  0  0  0  0  0  0
  -10.0204   23.1904   -2.9863 H   0  0  0  0  0  0  0  0  0  0  0  0
   -7.2584   18.8130  -11.6021 C   0  0  0  0  0  0  0  0  0  0  0  0
   -6.9186   17.4410  -11.3915 O   0  0  0  0  0  0  0  0  0  0  0  0
   -5.5181   17.1698  -11.4745 C   0  0  0  0  0  0  0  0  0  0  0  0
   -5.3029   15.7758  -12.0672 C   0  0  0  0  0  0  0  0  0  0  0  0
   -6.4113   15.4373  -12.9032 O   0  0  0  0  0  0  0  0  0  0  0  0
  -16.7448   18.5743   -7.7791 H   0  0  0  0  0  0  0  0  0  0  0  0
 19 20  2  0  0  0
 20 21  1  0  0  0
 20 18  1  0  0  0
 18 17  1  0  0  0
 17 16  1  0  0  0
 16 15  1  0  0  0
 15 14  1  0  0  0
 14 12  1  0  0  0
 12 13  2  0  0  0
 12  1  1  0  0  0
  1 23  1  0  0  0
  1  2  1  0  0  0
 23 24  1  0  0  0
 24 25  1  0  0  0
 25 26  1  0  0  0
 26 27  1  0  0  0
 27 28  2  0  0  0
 27 30  1  0  0  0
 30 31  1  0  0  0
 31 32  1  0  0  0
 32 33  1  0  0  0
 33 34  1  0  0  0
  2  3  1  0  0  0
  3  4  2  0  0  0
  3  6  1  0  0  0
  6  7  1  0  0  0
  7  8  1  0  0  0
  8  9  1  0  0  0
  9 10  1  0  0  0
 21 22  1  0  0  0
 26 29  1  0  0  0
 34 35  1  0  0  0
  2  5  1  0  0  0
 10 11  1  0  0  0
M  END
> <minimizedAffinity>
-6.05408

$$$$
ZINC000095981281


 32 34  0  0  0  0  0  0  0  0999 V2000
   -9.1308   16.4880   -5.2150 N   0  0  0  0  0  0  0  0  0  0  0  0
   -8.8830   15.7092   -6.2867 C   0  0  0  0  0  0  0  0  0  0  0  0
   -9.4982   14.6711   -6.4393 O   0  0  0  0  0  0  0  0  0  0  0  0
  -12.6624   16.3115    1.2996 H   0  0  0  0  0  0  0  0  0  0  0  0
   -7.8680   16.1149   -7.2724 C   0  0  0  0  0  0  0  0  0  0  0  0
   -8.0563   16.2880   -8.6303 C   0  0  0  0  0  0  0  0  0  0  0  0
   -6.8006   16.6747   -9.1330 C   0  0  0  0  0  0  0  0  0  0  0  0
   -5.9620   16.7153   -8.1191 N   0  0  0  0  0  0  0  0  0  0  0  0
   -6.5547   16.4002   -7.0243 N   0  0  0  0  0  0  0  0  0  0  0  0
  -11.2146   12.8905    1.3826 H   0  0  0  0  0  0  0  0  0  0  0  0
   -6.4795   16.9814  -10.5495 C   0  0  0  0  0  0  0  0  0  0  0  0
   -5.6096   16.1602  -11.2626 C   0  0  0  0  0  0  0  0  0  0  0  0
   -5.3143   16.4499  -12.5797 C   0  0  0  0  0  0  0  0  0  0  0  0
   -5.8804   17.5533  -13.1919 C   0  0  0  0  0  0  0  0  0  0  0  0
   -6.7451   18.3729  -12.4892 C   0  0  0  0  0  0  0  0  0  0  0  0
   -7.0523   18.0895  -11.1727 C   0  0  0  0  0  0  0  0  0  0  0  0
   -8.1382   19.1183  -10.2918 Cl  0  0  0  0  0  0  0  0  0  0  0  0
  -10.1411   16.0842   -4.2339 C   0  0  0  0  0  0  0  0  0  0  0  0
  -11.0798   17.2599   -3.9552 C   0  0  0  0  0  0  0  0  0  0  0  0
  -10.6065   18.4442   -4.6762 N   0  0  0  0  0  0  0  0  0  0  0  0
  -10.0770   22.1194   -5.2144 H   0  0  0  0  0  0  0  0  0  0  0  0
   -9.9502   19.7147   -3.8410 S   0  0  0  0  0  0  0  0  0  0  0  0
   -8.6352   19.3186   -3.4762 O   0  0  0  0  0  0  0  0  0  0  0  0
  -10.9297   20.1220   -2.8955 O   0  0  0  0  0  0  0  0  0  0  0  0
   -9.0340   19.6661   -6.8933 C   0  0  0  0  0  0  0  0  0  0  0  0
   -9.3849   20.9801   -6.2440 C   0  0  0  0  0  0  0  0  0  0  0  0
   -9.7708   21.0489   -4.9777 C   0  0  0  0  0  0  0  0  0  0  0  0
  -10.0674   22.7692   -4.6715 S   0  0  0  0  0  0  0  0  0  0  0  0
   -9.6524   23.2743   -6.2647 C   0  0  0  0  0  0  0  0  0  0  0  0
   -9.6583   24.4125   -6.6990 O   0  0  0  0  0  0  0  0  0  0  0  0
   -9.3157   22.1570   -6.9282 N   0  0  0  0  0  0  0  0  0  0  0  0
   -9.3824   20.9758   -6.2435 H   0  0  0  0  0  0  0  0  0  0  0  0
 25 26  1  0  0  0
 26 31  1  0  0  0
 26 27  2  0  0  0
 27 22  1  0  0  0
 27 28  1  0  0  0
 22 23  2  0  0  0
 22 24  2  0  0  0
 22 20  1  0  0  0
 20 19  1  0  0  0
 19 18  1  0  0  0
 18  1  1  0  0  0
  1  2  1  0  0  0
  2  3  2  0  0  0
  2  5  1  0  0  0
  5  9  1  0  0  0
  5  6  2  0  0  0
  6  7  1  0  0  0
  7 11  1  0  0  0
  7  8  2  0  0  0
 11 16  1  0  0  0
 11 12  2  0  0  0
 12 13  1  0  0  0
 13 14  2  0  0  0
 14 15  1  0  0  0
 15 16  2  0  0  0
 16 17  1  0  0  0
  8  9  1  0  0  0
 28 29  1  0  0  0
 29 30  2  0  0  0
 29 31  1  0  0  0
 20 21  1  0  0  0
  1  4  1  0  0  0
  9 10  1  0  0  0
 31 32  1  0  0  0
M  END
> <minimizedAffinity>
-7.75668

$$$$
ZINC000091380956


 27 30  0  0  0  0  0  0  0  0999 V2000
   -8.3561   19.7716   -8.0333 N   0  0  0  0  0  0  0  0  0  0  0  0
   -8.9327   19.9374   -9.3737 C   0  0  0  0  0  0  0  0  0  0  0  0
   -7.9908   19.3277  -10.4146 C   0  0  0  0  0  0  0  0  0  0  0  0
   -7.7895   17.8417  -10.1053 C   0  0  0  0  0  0  0  0  0  0  0  0
   -7.2338   17.6944   -8.6862 C   0  0  0  0  0  0  0  0  0  0  0  0
   -8.1975   18.3514   -7.6954 C   0  0  0  0  0  0  0  0  0  0  0  0
  -10.6172   21.7357   -5.2216 C   0  0  0  0  0  0  0  0  0  0  0  0
  -10.3371   20.3741   -5.0300 C   0  0  0  0  0  0  0  0  0  0  0  0
   -9.5830   19.7241   -5.9700 C   0  0  0  0  0  0  0  0  0  0  0  0
   -9.1193   20.4268   -7.0799 C   0  0  0  0  0  0  0  0  0  0  0  0
   -9.3981   21.7135   -7.2374 N   0  0  0  0  0  0  0  0  0  0  0  0
  -10.1247   22.3752   -6.3607 C   0  0  0  0  0  0  0  0  0  0  0  0
  -12.0242   23.0298   -3.5069 N   0  0  0  0  0  0  0  0  0  0  0  0
  -11.4018   22.4574   -4.2654 C   0  0  0  0  0  0  0  0  0  0  0  0
   -6.8158   17.2494  -11.0914 C   0  0  0  0  0  0  0  0  0  0  0  0
   -5.7346   17.8302  -11.5349 N   0  0  0  0  0  0  0  0  0  0  0  0
   -5.1135   17.0103  -12.3959 C   0  0  0  0  0  0  0  0  0  0  0  0
   -5.8375   15.8786  -12.4894 C   0  0  0  0  0  0  0  0  0  0  0  0
   -6.9146   16.0277  -11.6580 N   0  0  0  0  0  0  0  0  0  0  0  0
  -11.3674   22.1975   -4.0675 H   0  0  0  0  0  0  0  0  0  0  0  0
   -7.9801   15.0480  -11.4317 C   0  0  0  0  0  0  0  0  0  0  0  0
   -7.3782   13.7534  -10.9492 C   0  0  0  0  0  0  0  0  0  0  0  0
   -7.3781   12.6263  -11.7566 C   0  0  0  0  0  0  0  0  0  0  0  0
   -6.8170   11.4567  -11.2800 C   0  0  0  0  0  0  0  0  0  0  0  0
   -6.2868   11.4055  -10.0736 N   0  0  0  0  0  0  0  0  0  0  0  0
   -6.2693   12.4574   -9.2787 C   0  0  0  0  0  0  0  0  0  0  0  0
   -6.8061   13.6629   -9.6894 C   0  0  0  0  0  0  0  0  0  0  0  0
 13 14  3  0  0  0
 14  7  1  0  0  0
  7 12  2  0  0  0
  7  8  1  0  0  0
  8  9  2  0  0  0
  9 10  1  0  0  0
 10  1  1  0  0  0
 10 11  2  0  0  0
  1  6  1  0  0  0
  1  2  1  0  0  0
  2  3  1  0  0  0
  3  4  1  0  0  0
  4 15  1  0  0  0
  4  5  1  0  0  0
 15 19  1  0  0  0
 15 16  2  0  0  0
 16 17  1  0  0  0
 17 18  2  0  0  0
 18 19  1  0  0  0
 19 21  1  0  0  0
 21 22  1  0  0  0
 22 27  1  0  0  0
 22 23  2  0  0  0
 23 24  1  0  0  0
 24 25  2  0  0  0
 25 26  1  0  0  0
 26 27  2  0  0  0
  5  6  1  0  0  0
 11 12  1  0  0  0
 16 20  1  0  0  0
M  CHG 1  16   1
M  END
> <minimizedAffinity>
-7.78938

$$$$
ZINC000002233571


 28 30  0  0  0  0  0  0  0  0999 V2000
   -9.2787   20.9508   -8.6266 C   0  0  0  0  0  0  0  0  0  0  0  0
   -8.6247   19.8354   -9.0403 C   0  0  0  0  0  0  0  0  0  0  0  0
   -8.1511   19.4028  -10.6945 S   0  0  0  0  0  0  0  0  0  0  0  0
   -7.4006   17.8645  -10.2365 C   0  0  0  0  0  0  0  0  0  0  0  0
   -6.7891   16.9527  -11.0944 C   0  0  0  0  0  0  0  0  0  0  0  0
   -7.5349   17.7427   -8.8854 N   0  0  0  0  0  0  0  0  0  0  0  0
   -8.1396   18.7076   -8.2122 C   0  0  0  0  0  0  0  0  0  0  0  0
   -8.2947   18.6665   -7.0079 O   0  0  0  0  0  0  0  0  0  0  0  0
   -6.2743   15.6860  -10.5701 C   0  0  0  0  0  0  0  0  0  0  0  0
   -5.2001   15.6556   -9.9981 O   0  0  0  0  0  0  0  0  0  0  0  0
   -6.9897   14.5538  -10.7209 N   0  0  0  0  0  0  0  0  0  0  0  0
   -8.2334   14.5428  -11.5072 C   0  0  0  0  0  0  0  0  0  0  0  0
   -8.1582   13.3900  -12.5149 C   0  0  0  0  0  0  0  0  0  0  0  0
   -7.8332   12.1814  -11.8239 O   0  0  0  0  0  0  0  0  0  0  0  0
   -6.5567   12.2002  -11.1804 C   0  0  0  0  0  0  0  0  0  0  0  0
   -6.5470   13.2908  -10.1091 C   0  0  0  0  0  0  0  0  0  0  0  0
   -7.0342   16.6166   -8.2195 C   0  0  0  0  0  0  0  0  0  0  0  0
   -5.7060   16.5802   -7.8163 C   0  0  0  0  0  0  0  0  0  0  0  0
   -5.2154   15.4686   -7.1595 C   0  0  0  0  0  0  0  0  0  0  0  0
   -6.0455   14.3927   -6.9034 C   0  0  0  0  0  0  0  0  0  0  0  0
   -7.3688   14.4260   -7.3036 C   0  0  0  0  0  0  0  0  0  0  0  0
   -7.8666   15.5369   -7.9561 C   0  0  0  0  0  0  0  0  0  0  0  0
   -9.4242   21.2259   -7.1956 C   0  0  0  0  0  0  0  0  0  0  0  0
   -8.6673   22.0025   -6.6458 O   0  0  0  0  0  0  0  0  0  0  0  0
  -10.3700   20.7890   -5.0459 C   0  0  0  0  0  0  0  0  0  0  0  0
  -10.3981   20.6177   -6.4875 O   0  0  0  0  0  0  0  0  0  0  0  0
   -6.6639   17.2544  -12.4886 C   0  0  0  0  0  0  0  0  0  0  0  0
   -6.5647   17.4937  -13.5947 N   0  0  0  0  0  0  0  0  0  0  0  0
 25 26  1  0  0  0
 26 23  1  0  0  0
 23 24  2  0  0  0
 23  1  1  0  0  0
  1  2  2  0  0  0
  2  7  1  0  0  0
  2  3  1  0  0  0
  3  4  1  0  0  0
  4  5  2  0  0  0
  4  6  1  0  0  0
  5 27  1  0  0  0
  5  9  1  0  0  0
 27 28  3  0  0  0
  9 10  2  0  0  0
  9 11  1  0  0  0
 11 16  1  0  0  0
 11 12  1  0  0  0
 12 13  1  0  0  0
 13 14  1  0  0  0
 14 15  1  0  0  0
 15 16  1  0  0  0
  6 17  1  0  0  0
  6  7  1  0  0  0
 17 22  1  0  0  0
 17 18  2  0  0  0
 18 19  1  0  0  0
 19 20  2  0  0  0
 20 21  1  0  0  0
 21 22  2  0  0  0
  7  8  2  0  0  0
M  END
> <minimizedAffinity>
-6.59910

$$$$
ZINC000019936365


 24 26  0  0  0  0  0  0  0  0999 V2000
   -8.5639   16.5621   -7.3345 S   0  0  0  0  0  0  0  0  0  0  0  0
   -8.3573   16.3308   -5.9478 O   0  0  0  0  0  0  0  0  0  0  0  0
   -9.8538   16.6765   -7.9196 O   0  0  0  0  0  0  0  0  0  0  0  0
   -7.7463   15.2530   -8.1845 C   0  0  0  0  0  0  0  0  0  0  0  0
   -6.4407   14.9303   -7.8591 C   0  0  0  0  0  0  0  0  0  0  0  0
   -5.7928   13.9051   -8.5211 C   0  0  0  0  0  0  0  0  0  0  0  0
   -6.4542   13.1988   -9.5130 C   0  0  0  0  0  0  0  0  0  0  0  0
   -6.0859   12.1398  -10.3423 N   0  0  0  0  0  0  0  0  0  0  0  0
   -7.1436   11.8530  -11.1269 C   0  0  0  0  0  0  0  0  0  0  0  0
   -7.1743   10.9794  -11.9723 O   0  0  0  0  0  0  0  0  0  0  0  0
   -8.1579   12.6805  -10.8303 O   0  0  0  0  0  0  0  0  0  0  0  0
   -7.7707   13.5230   -9.8414 C   0  0  0  0  0  0  0  0  0  0  0  0
   -8.4138   14.5497   -9.1688 C   0  0  0  0  0  0  0  0  0  0  0  0
  -12.2908   19.1894   -2.4854 H   0  0  0  0  0  0  0  0  0  0  0  0
   -7.7587   17.9622   -7.7000 N   0  0  0  0  0  0  0  0  0  0  0  0
   -7.9269   20.0390  -12.9747 H   0  0  0  0  0  0  0  0  0  0  0  0
   -7.8794   19.4837  -11.5739 C   0  0  0  0  0  0  0  0  0  0  0  0
   -6.9807   18.4828  -11.2536 C   0  0  0  0  0  0  0  0  0  0  0  0
   -6.9380   17.9758   -9.9696 C   0  0  0  0  0  0  0  0  0  0  0  0
   -7.7994   18.4724   -8.9996 C   0  0  0  0  0  0  0  0  0  0  0  0
   -8.7010   19.4779   -9.3248 C   0  0  0  0  0  0  0  0  0  0  0  0
   -8.7344   19.9843  -10.6092 C   0  0  0  0  0  0  0  0  0  0  0  0
   -6.9990   19.2119  -13.8761 C   0  0  0  0  0  0  0  0  0  0  0  0
   -7.9230   20.0346  -12.9759 C   0  0  0  0  0  0  0  0  0  0  0  0
 23 24  1  0  0  0
 24 17  1  0  0  0
 17 22  2  0  0  0
 17 18  1  0  0  0
 18 19  2  0  0  0
 19 20  1  0  0  0
 20 15  1  0  0  0
 20 21  2  0  0  0
 15  1  1  0  0  0
  1  2  2  0  0  0
  1  3  2  0  0  0
  1  4  1  0  0  0
  4 13  1  0  0  0
  4  5  2  0  0  0
  5  6  1  0  0  0
  6  7  2  0  0  0
  7 12  1  0  0  0
  7  8  1  0  0  0
  8  9  1  0  0  0
  9 10  2  0  0  0
  9 11  1  0  0  0
 11 12  1  0  0  0
 12 13  2  0  0  0
 21 22  1  0  0  0
 15 16  1  0  0  0
  8 14  1  0  0  0
M  END
> <minimizedAffinity>
-8.43817

$$$$
ZINC000075104411


 30 32  0  0  0  0  0  0  0  0999 V2000
   -9.2164   15.6750   -8.3729 N   0  0  0  0  0  0  0  0  0  0  0  0
   -9.4087   15.8562   -7.0513 C   0  0  0  0  0  0  0  0  0  0  0  0
   -9.4412   14.8995   -6.3065 O   0  0  0  0  0  0  0  0  0  0  0  0
   -6.1363   13.0211  -12.2021 H   0  0  0  0  0  0  0  0  0  0  0  0
   -9.0467   14.3225   -8.9098 C   0  0  0  0  0  0  0  0  0  0  0  0
   -5.9981   12.8673  -11.6144 C   0  0  0  0  0  0  0  0  0  0  0  0
   -7.2126   13.5800  -12.2129 C   0  0  0  0  0  0  0  0  0  0  0  0
   -8.3542   13.5847  -11.1942 C   0  0  0  0  0  0  0  0  0  0  0  0
   -7.9051   14.3176   -9.9284 C   0  0  0  0  0  0  0  0  0  0  0  0
   -6.6907   13.6050   -9.3301 C   0  0  0  0  0  0  0  0  0  0  0  0
   -5.5491   13.6002  -10.3488 C   0  0  0  0  0  0  0  0  0  0  0  0
   -5.4578   10.6333  -10.6999 N   0  0  0  0  0  0  0  0  0  0  0  0
   -6.3686   11.4481  -11.2685 C   0  0  0  0  0  0  0  0  0  0  0  0
   -7.4862   11.0390  -11.5017 O   0  0  0  0  0  0  0  0  0  0  0  0
   -6.3638   11.4465  -11.2686 H   0  0  0  0  0  0  0  0  0  0  0  0
   -6.3638   11.4465  -11.2686 H   0  0  0  0  0  0  0  0  0  0  0  0
   -9.5832   17.2474   -6.4990 C   0  0  0  0  0  0  0  0  0  0  0  0
   -8.3396   18.0811   -6.8143 C   0  0  0  0  0  0  0  0  0  0  0  0
   -8.6984   19.1675   -7.7950 C   0  0  0  0  0  0  0  0  0  0  0  0
   -9.3809   20.1045   -7.4389 O   0  0  0  0  0  0  0  0  0  0  0  0
   -8.2208   19.0914   -9.1848 C   0  0  0  0  0  0  0  0  0  0  0  0
   -8.7363   19.9552  -10.1564 C   0  0  0  0  0  0  0  0  0  0  0  0
   -8.2815   19.8693  -11.4521 C   0  0  0  0  0  0  0  0  0  0  0  0
   -7.3161   18.9332  -11.8074 C   0  0  0  0  0  0  0  0  0  0  0  0
   -6.8820   18.8914  -13.2498 C   0  0  0  0  0  0  0  0  0  0  0  0
   -5.5560   18.1472  -13.3908 C   0  0  0  0  0  0  0  0  0  0  0  0
   -5.6805   16.7969  -12.6754 C   0  0  0  0  0  0  0  0  0  0  0  0
   -5.7449   17.0530  -11.1712 C   0  0  0  0  0  0  0  0  0  0  0  0
   -6.7987   18.0818  -10.8534 C   0  0  0  0  0  0  0  0  0  0  0  0
   -7.2450   18.1604   -9.5442 C   0  0  0  0  0  0  0  0  0  0  0  0
 12 13  1  0  0  0
 13 14  2  0  0  0
 13  6  1  0  0  0
  6 11  1  0  0  0
  6  7  1  0  0  0
  7  8  1  0  0  0
  8  9  1  0  0  0
  9  5  1  0  0  0
  9 10  1  0  0  0
  5  1  1  0  0  0
  1  2  1  0  0  0
  2  3  2  0  0  0
  2 17  1  0  0  0
 17 18  1  0  0  0
 18 19  1  0  0  0
 19 20  2  0  0  0
 19 21  1  0  0  0
 21 30  1  0  0  0
 21 22  2  0  0  0
 22 23  1  0  0  0
 23 24  2  0  0  0
 24 29  1  0  0  0
 24 25  1  0  0  0
 25 26  1  0  0  0
 26 27  1  0  0  0
 27 28  1  0  0  0
 28 29  1  0  0  0
 29 30  2  0  0  0
 10 11  1  0  0  0
 12 15  1  0  0  0
 12 16  1  0  0  0
  1  4  1  0  0  0
M  END
> <minimizedAffinity>
-9.05046

$$$$
ZINC000072389552


 30 33  0  0  0  0  0  0  0  0999 V2000
   -6.3489   16.8091  -10.6728 N   0  0  0  0  0  0  0  0  0  0  0  0
   -5.9701   18.1453  -11.1599 C   0  0  0  0  0  0  0  0  0  0  0  0
   -7.1812   19.0696  -11.0257 C   0  0  0  0  0  0  0  0  0  0  0  0
   -7.7559   18.9654   -9.6383 C   0  0  0  0  0  0  0  0  0  0  0  0
   -7.4543   17.9333   -8.8067 C   0  0  0  0  0  0  0  0  0  0  0  0
   -6.5160   16.8286   -9.2161 C   0  0  0  0  0  0  0  0  0  0  0  0
   -7.9983   17.8871   -7.5864 N   0  0  0  0  0  0  0  0  0  0  0  0
   -8.8223   18.8205   -7.1601 C   0  0  0  0  0  0  0  0  0  0  0  0
   -9.1553   19.8776   -7.9490 N   0  0  0  0  0  0  0  0  0  0  0  0
   -8.6350   19.9711   -9.1901 C   0  0  0  0  0  0  0  0  0  0  0  0
   -8.9207   20.9118   -9.9128 O   0  0  0  0  0  0  0  0  0  0  0  0
   -3.0531   16.5047   -9.1248 H   0  0  0  0  0  0  0  0  0  0  0  0
   -9.3527   18.7263   -5.9015 N   0  0  0  0  0  0  0  0  0  0  0  0
  -10.1066   17.5327   -5.4944 C   0  0  0  0  0  0  0  0  0  0  0  0
   -9.4983   16.9830   -4.2004 C   0  0  0  0  0  0  0  0  0  0  0  0
   -9.4613   18.0926   -3.1471 C   0  0  0  0  0  0  0  0  0  0  0  0
   -8.5811   19.2415   -3.6447 C   0  0  0  0  0  0  0  0  0  0  0  0
   -9.1739   19.8142   -4.9304 C   0  0  0  0  0  0  0  0  0  0  0  0
   -5.3585   15.8017  -11.0755 C   0  0  0  0  0  0  0  0  0  0  0  0
   -7.5781   15.3808  -12.8469 C   0  0  0  0  0  0  0  0  0  0  0  0
   -7.0653   14.2512  -11.9914 C   0  0  0  0  0  0  0  0  0  0  0  0
   -6.0212   14.4507  -11.1588 C   0  0  0  0  0  0  0  0  0  0  0  0
   -5.5578   13.3742  -10.3647 C   0  0  0  0  0  0  0  0  0  0  0  0
   -4.6179   13.5302   -9.6060 O   0  0  0  0  0  0  0  0  0  0  0  0
   -6.1668   12.1747  -10.4558 N   0  0  0  0  0  0  0  0  0  0  0  0
   -5.6962   11.0536   -9.6387 C   0  0  0  0  0  0  0  0  0  0  0  0
   -7.2057   12.0034  -11.2944 C   0  0  0  0  0  0  0  0  0  0  0  0
   -7.7451   10.9161  -11.3660 O   0  0  0  0  0  0  0  0  0  0  0  0
   -7.6590   13.0198  -12.0504 N   0  0  0  0  0  0  0  0  0  0  0  0
   -8.7921   12.8031  -12.9536 C   0  0  0  0  0  0  0  0  0  0  0  0
 20 21  1  0  0  0
 21 29  1  0  0  0
 21 22  2  0  0  0
 22 19  1  0  0  0
 22 23  1  0  0  0
 19  1  1  0  0  0
  1  6  1  0  0  0
  1  2  1  0  0  0
  2  3  1  0  0  0
  3  4  1  0  0  0
  4 10  1  0  0  0
  4  5  2  0  0  0
  5  6  1  0  0  0
  5  7  1  0  0  0
  7  8  2  0  0  0
  8 13  1  0  0  0
  8  9  1  0  0  0
 13 18  1  0  0  0
 13 14  1  0  0  0
 14 15  1  0  0  0
 15 16  1  0  0  0
 16 17  1  0  0  0
 17 18  1  0  0  0
  9 10  1  0  0  0
 10 11  2  0  0  0
 23 24  2  0  0  0
 23 25  1  0  0  0
 25 26  1  0  0  0
 25 27  1  0  0  0
 27 28  2  0  0  0
 27 29  1  0  0  0
 29 30  1  0  0  0
  9 12  1  0  0  0
M  END
> <minimizedAffinity>
-8.48588

$$$$
ZINC000036885481


 21 22  0  0  0  0  0  0  0  0999 V2000
   -7.9608   14.2588   -9.6332 S   0  0  0  0  0  0  0  0  0  0  0  0
   -7.2593   13.2900   -8.8662 O   0  0  0  0  0  0  0  0  0  0  0  0
   -9.2177   14.0041  -10.2453 O   0  0  0  0  0  0  0  0  0  0  0  0
   -8.7530   19.0369   -6.0321 C   0  0  0  0  0  0  0  0  0  0  0  0
   -8.5556   17.8433   -6.9309 C   0  0  0  0  0  0  0  0  0  0  0  0
   -7.4726   17.7948   -7.7874 C   0  0  0  0  0  0  0  0  0  0  0  0
   -7.2912   16.7000   -8.6122 C   0  0  0  0  0  0  0  0  0  0  0  0
   -8.1933   15.6531   -8.5811 C   0  0  0  0  0  0  0  0  0  0  0  0
   -9.2771   15.6992   -7.7247 C   0  0  0  0  0  0  0  0  0  0  0  0
   -9.4567   16.7923   -6.8944 C   0  0  0  0  0  0  0  0  0  0  0  0
  -10.5158   16.8385   -6.0570 F   0  0  0  0  0  0  0  0  0  0  0  0
   -6.9358   14.7261  -10.8470 N   0  0  0  0  0  0  0  0  0  0  0  0
   -5.5675   14.2043  -10.8917 C   0  0  0  0  0  0  0  0  0  0  0  0
   -5.4696   13.1422  -11.9564 C   0  0  0  0  0  0  0  0  0  0  0  0
   -5.6053   11.9673  -11.6599 O   0  0  0  0  0  0  0  0  0  0  0  0
   -5.2546   13.4578  -13.1143 O   0  0  0  0  0  0  0  0  0  0  0  0
   -3.9508   16.8487   -5.9235 H   0  0  0  0  0  0  0  0  0  0  0  0
   -7.3971   15.6613  -11.8759 C   0  0  0  0  0  0  0  0  0  0  0  0
   -6.3214   16.7213  -12.1209 C   0  0  0  0  0  0  0  0  0  0  0  0
   -6.4305   17.5565  -13.3982 C   0  0  0  0  0  0  0  0  0  0  0  0
   -6.7452   18.1893  -12.0412 C   0  0  0  0  0  0  0  0  0  0  0  0
  4  5  1  0  0  0
  5 10  2  0  0  0
  5  6  1  0  0  0
  6  7  2  0  0  0
  7  8  1  0  0  0
  8  1  1  0  0  0
  8  9  2  0  0  0
  1  2  2  0  0  0
  1  3  2  0  0  0
  1 12  1  0  0  0
 12 13  1  0  0  0
 12 18  1  0  0  0
 13 14  1  0  0  0
 14 15  2  0  0  0
 14 16  1  0  0  0
 18 19  1  0  0  0
 19 21  1  0  0  0
 19 20  1  0  0  0
 20 21  1  0  0  0
  9 10  1  0  0  0
 10 11  1  0  0  0
 16 17  1  0  0  0
M  END
> <minimizedAffinity>
-6.98044

$$$$
ZINC000004983972


 30 31  0  0  0  0  0  0  0  0999 V2000
   -7.3701   18.2615   -9.5282 C   0  0  0  0  0  0  0  0  0  0  0  0
   -8.2417   19.2616   -8.9570 O   0  0  0  0  0  0  0  0  0  0  0  0
   -8.4633   18.8394   -7.5938 C   0  0  0  0  0  0  0  0  0  0  0  0
   -9.6467   19.4465   -7.0712 O   0  0  0  0  0  0  0  0  0  0  0  0
   -8.6348   17.3065   -7.6783 C   0  0  0  0  0  0  0  0  0  0  0  0
  -10.0191   16.9612   -7.7600 O   0  0  0  0  0  0  0  0  0  0  0  0
   -7.8963   16.9164   -8.9803 C   0  0  0  0  0  0  0  0  0  0  0  0
   -7.3498   18.8535  -13.6158 H   0  0  0  0  0  0  0  0  0  0  0  0
   -7.3498   18.8535  -13.6158 H   0  0  0  0  0  0  0  0  0  0  0  0
   -6.7875   16.0046   -8.6880 N   0  0  0  0  0  0  0  0  0  0  0  0
   -7.0237   14.6884   -8.5200 C   0  0  0  0  0  0  0  0  0  0  0  0
   -8.1542   14.2588   -8.6108 O   0  0  0  0  0  0  0  0  0  0  0  0
   -6.6001   20.0500  -12.7272 H   0  0  0  0  0  0  0  0  0  0  0  0
   -5.8831   13.7506   -8.2194 C   0  0  0  0  0  0  0  0  0  0  0  0
   -5.6388   13.7398   -6.8419 F   0  0  0  0  0  0  0  0  0  0  0  0
   -6.2161   12.4599   -8.6440 F   0  0  0  0  0  0  0  0  0  0  0  0
   -4.7352   14.1814   -8.8932 F   0  0  0  0  0  0  0  0  0  0  0  0
   -7.4598   18.2863  -11.0553 C   0  0  0  0  0  0  0  0  0  0  0  0
   -6.2323   17.7555  -11.6209 O   0  0  0  0  0  0  0  0  0  0  0  0
   -6.3338   17.2761  -13.7858 O   0  0  0  0  0  0  0  0  0  0  0  0
   -6.3558   16.8804  -12.6375 C   0  0  0  0  0  0  0  0  0  0  0  0
   -6.5241   15.4400  -12.3557 C   0  0  0  0  0  0  0  0  0  0  0  0
   -7.8031   14.8847  -12.2821 C   0  0  0  0  0  0  0  0  0  0  0  0
   -7.9530   13.5389  -12.0190 C   0  0  0  0  0  0  0  0  0  0  0  0
   -6.8396   12.7397  -11.8283 C   0  0  0  0  0  0  0  0  0  0  0  0
   -5.5693   13.2835  -11.9004 C   0  0  0  0  0  0  0  0  0  0  0  0
   -5.4048   14.6268  -12.1674 C   0  0  0  0  0  0  0  0  0  0  0  0
   -7.0083   11.2964  -11.5465 N   0  0  0  0  0  0  0  0  0  0  0  0
   -6.0833   10.5269  -11.7356 O   0  0  0  0  0  0  0  0  0  0  0  0
   -8.0720   10.8784  -11.1254 O   0  0  0  0  0  0  0  0  0  0  0  0
 20 21  2  0  0  0
 21 19  1  0  0  0
 21 22  1  0  0  0
 19 18  1  0  0  0
 18  1  1  0  0  0
  1  7  1  0  0  0
  1  2  1  0  0  0
  2  3  1  0  0  0
  3  4  1  0  0  0
  3  5  1  0  0  0
  5  6  1  0  0  0
  5  7  1  0  0  0
  7 10  1  0  0  0
 10 11  1  0  0  0
 11 12  2  0  0  0
 11 14  1  0  0  0
 14 15  1  0  0  0
 14 16  1  0  0  0
 14 17  1  0  0  0
 22 27  1  0  0  0
 22 23  2  0  0  0
 23 24  1  0  0  0
 24 25  2  0  0  0
 25 28  1  0  0  0
 25 26  1  0  0  0
 28 29  1  0  0  0
 28 30  2  0  0  0
 26 27  2  0  0  0
  4  8  1  0  0  0
  6  9  1  0  0  0
 10 13  1  0  0  0
M  CHG 1  28   1
M  CHG 1  29  -1
M  END
> <minimizedAffinity>
-8.16182

$$$$
ZINC000020058026


 21 22  0  0  0  0  0  0  0  0999 V2000
   -8.4507   18.8242   -9.1194 N   0  0  0  0  0  0  0  0  0  0  0  0
   -8.6675   20.1435   -8.9612 C   0  0  0  0  0  0  0  0  0  0  0  0
   -8.5847   20.9748   -9.8450 O   0  0  0  0  0  0  0  0  0  0  0  0
   -9.0192   20.4306   -7.5668 C   0  0  0  0  0  0  0  0  0  0  0  0
   -9.3314   21.7981   -7.0158 C   0  0  0  0  0  0  0  0  0  0  0  0
   -9.0219   19.3036   -6.8620 C   0  0  0  0  0  0  0  0  0  0  0  0
   -9.3316   19.1657   -5.3936 C   0  0  0  0  0  0  0  0  0  0  0  0
   -8.6612   18.1864   -7.8131 C   0  0  0  0  0  0  0  0  0  0  0  0
   -9.7563   17.2102   -7.8869 N   0  0  0  0  0  0  0  0  0  0  0  0
   -7.7623   15.6239  -11.7235 H   0  0  0  0  0  0  0  0  0  0  0  0
   -9.3630   15.9309   -7.2815 C   0  0  0  0  0  0  0  0  0  0  0  0
   -8.4346   15.1976   -8.2150 C   0  0  0  0  0  0  0  0  0  0  0  0
   -8.7837   14.6209   -9.3790 C   0  0  0  0  0  0  0  0  0  0  0  0
   -7.6091   14.0517   -9.9226 C   0  0  0  0  0  0  0  0  0  0  0  0
   -6.6125   14.3147   -9.0583 C   0  0  0  0  0  0  0  0  0  0  0  0
   -5.1726   13.9013   -9.2212 C   0  0  0  0  0  0  0  0  0  0  0  0
   -7.1173   15.0140   -8.0287 O   0  0  0  0  0  0  0  0  0  0  0  0
   -8.0797   18.1489  -10.3654 C   0  0  0  0  0  0  0  0  0  0  0  0
   -6.5904   17.7998  -10.3323 C   0  0  0  0  0  0  0  0  0  0  0  0
   -5.2206   16.4705  -11.9445 C   0  0  0  0  0  0  0  0  0  0  0  0
   -6.0477   17.7447  -11.7617 C   0  0  0  0  0  0  0  0  0  0  0  0
 20 21  1  0  0  0
 21 19  1  0  0  0
 19 18  1  0  0  0
 18  1  1  0  0  0
  1  8  1  0  0  0
  1  2  1  0  0  0
  2  3  2  0  0  0
  2  4  1  0  0  0
  4  5  1  0  0  0
  4  6  2  0  0  0
  6  7  1  0  0  0
  6  8  1  0  0  0
  8  9  1  0  0  0
  9 11  1  0  0  0
 11 12  1  0  0  0
 12 17  1  0  0  0
 12 13  2  0  0  0
 13 14  1  0  0  0
 14 15  2  0  0  0
 15 16  1  0  0  0
 15 17  1  0  0  0
  9 10  1  0  0  0
M  END
> <minimizedAffinity>
-6.47112

$$$$
ZINC000001440668


 28 31  0  0  0  0  0  0  0  0999 V2000
   -7.2842   14.5376  -10.2773 C   0  0  0  0  0  0  0  0  0  0  0  0
   -6.9439   15.5077  -11.1167 N   0  0  0  0  0  0  0  0  0  0  0  0
   -7.2375   16.7719  -10.8267 C   0  0  0  0  0  0  0  0  0  0  0  0
   -7.8718   17.0638   -9.6960 N   0  0  0  0  0  0  0  0  0  0  0  0
   -8.2122   16.0917   -8.8560 C   0  0  0  0  0  0  0  0  0  0  0  0
   -7.9226   14.8275   -9.1504 N   0  0  0  0  0  0  0  0  0  0  0  0
   -5.9371   11.3678  -11.1844 C   0  0  0  0  0  0  0  0  0  0  0  0
   -5.7718   12.7353  -11.0103 C   0  0  0  0  0  0  0  0  0  0  0  0
   -4.6204   13.4649  -11.2271 N   0  0  0  0  0  0  0  0  0  0  0  0
   -6.9763   13.2137  -10.5821 N   0  0  0  0  0  0  0  0  0  0  0  0
   -7.8433   12.1149  -10.5083 N   0  0  0  0  0  0  0  0  0  0  0  0
   -7.2084   11.0568  -10.8712 N   0  0  0  0  0  0  0  0  0  0  0  0
   -4.9323   10.4530  -11.6232 H   0  0  0  0  0  0  0  0  0  0  0  0
   -4.9323   10.4530  -11.6232 H   0  0  0  0  0  0  0  0  0  0  0  0
   -4.1335    9.7205  -11.9767 N   0  0  0  0  0  0  0  0  0  0  0  0
   -4.9313   10.4492  -11.6262 C   0  0  0  0  0  0  0  0  0  0  0  0
   -6.8838   17.7805  -11.7000 N   0  0  0  0  0  0  0  0  0  0  0  0
   -6.1038   17.4924  -12.9139 C   0  0  0  0  0  0  0  0  0  0  0  0
   -6.8176   18.1316  -14.1105 C   0  0  0  0  0  0  0  0  0  0  0  0
   -7.0665   19.5108  -13.8281 O   0  0  0  0  0  0  0  0  0  0  0  0
   -7.9329   19.7329  -12.7129 C   0  0  0  0  0  0  0  0  0  0  0  0
   -7.2809   19.1748  -11.4477 C   0  0  0  0  0  0  0  0  0  0  0  0
   -8.8713   16.3934   -7.6817 N   0  0  0  0  0  0  0  0  0  0  0  0
   -9.3008   15.3303   -6.7594 C   0  0  0  0  0  0  0  0  0  0  0  0
   -8.8096   15.6843   -5.3511 C   0  0  0  0  0  0  0  0  0  0  0  0
   -9.2270   17.0127   -5.0272 O   0  0  0  0  0  0  0  0  0  0  0  0
   -8.6803   18.0222   -5.8792 C   0  0  0  0  0  0  0  0  0  0  0  0
   -9.1599   17.7881   -7.3118 C   0  0  0  0  0  0  0  0  0  0  0  0
 15 16  3  0  0  0
 16  7  1  0  0  0
  7 12  1  0  0  0
  7  8  2  0  0  0
  8  9  1  0  0  0
  8 10  1  0  0  0
 10  1  1  0  0  0
 10 11  1  0  0  0
  1  6  1  0  0  0
  1  2  2  0  0  0
  2  3  1  0  0  0
  3 17  1  0  0  0
  3  4  2  0  0  0
 17 22  1  0  0  0
 17 18  1  0  0  0
 18 19  1  0  0  0
 19 20  1  0  0  0
 20 21  1  0  0  0
 21 22  1  0  0  0
  4  5  1  0  0  0
  5 23  1  0  0  0
  5  6  2  0  0  0
 23 28  1  0  0  0
 23 24  1  0  0  0
 24 25  1  0  0  0
 25 26  1  0  0  0
 26 27  1  0  0  0
 27 28  1  0  0  0
 11 12  2  0  0  0
  9 13  1  0  0  0
  9 14  1  0  0  0
M  END
> <minimizedAffinity>
-8.14137

$$$$
ZINC000078869869


 26 28  0  0  0  0  0  0  0  0999 V2000
   -9.3982   18.1372   -5.7459 N   0  0  0  0  0  0  0  0  0  0  0  0
   -9.7485   17.3569   -6.7876 C   0  0  0  0  0  0  0  0  0  0  0  0
  -10.3768   16.3372   -6.5971 O   0  0  0  0  0  0  0  0  0  0  0  0
   -8.9916   17.0635   -1.6872 H   0  0  0  0  0  0  0  0  0  0  0  0
   -9.1871   16.5264   -0.3303 C   0  0  0  0  0  0  0  0  0  0  0  0
   -8.9920   16.9296   -1.7294 N   0  0  0  0  0  0  0  0  0  0  0  0
   -9.4976   18.2887   -1.9607 C   0  0  0  0  0  0  0  0  0  0  0  0
   -9.1482   18.7288   -3.3842 C   0  0  0  0  0  0  0  0  0  0  0  0
   -9.7764   17.7535   -4.3835 C   0  0  0  0  0  0  0  0  0  0  0  0
   -9.2707   16.3383   -4.0902 C   0  0  0  0  0  0  0  0  0  0  0  0
   -9.6166   15.9674   -2.6462 C   0  0  0  0  0  0  0  0  0  0  0  0
  -11.2420   17.7896   -4.2512 C   0  0  0  0  0  0  0  0  0  0  0  0
  -12.3730   17.8174   -4.1490 N   0  0  0  0  0  0  0  0  0  0  0  0
   -9.3595   17.7516   -8.1889 C   0  0  0  0  0  0  0  0  0  0  0  0
   -7.9584   17.2183   -8.4999 C   0  0  0  0  0  0  0  0  0  0  0  0
   -7.5532   17.6714   -9.8385 N   0  0  0  0  0  0  0  0  0  0  0  0
   -7.5626   19.1395   -9.9166 C   0  0  0  0  0  0  0  0  0  0  0  0
   -8.9677   19.6535   -9.5914 C   0  0  0  0  0  0  0  0  0  0  0  0
   -9.3579   19.1773   -8.3005 O   0  0  0  0  0  0  0  0  0  0  0  0
   -6.2348   17.1335  -10.1997 C   0  0  0  0  0  0  0  0  0  0  0  0
   -6.4102   15.9195  -11.0752 C   0  0  0  0  0  0  0  0  0  0  0  0
   -7.6728   15.5506  -11.5004 C   0  0  0  0  0  0  0  0  0  0  0  0
   -7.8337   14.4370  -12.3035 C   0  0  0  0  0  0  0  0  0  0  0  0
   -6.7320   13.6925  -12.6816 C   0  0  0  0  0  0  0  0  0  0  0  0
   -5.4693   14.0620  -12.2570 C   0  0  0  0  0  0  0  0  0  0  0  0
   -5.3080   15.1780  -11.4576 C   0  0  0  0  0  0  0  0  0  0  0  0
  5  6  1  0  0  0
  6 11  1  0  0  0
  6  7  1  0  0  0
  7  8  1  0  0  0
  8  9  1  0  0  0
  9 12  1  0  0  0
  9  1  1  0  0  0
  9 10  1  0  0  0
 12 13  3  0  0  0
  1  2  1  0  0  0
  2  3  2  0  0  0
  2 14  1  0  0  0
 14 19  1  0  0  0
 14 15  1  0  0  0
 15 16  1  0  0  0
 16 20  1  0  0  0
 16 17  1  0  0  0
 20 21  1  0  0  0
 21 26  1  0  0  0
 21 22  2  0  0  0
 22 23  1  0  0  0
 23 24  2  0  0  0
 24 25  1  0  0  0
 25 26  2  0  0  0
 17 18  1  0  0  0
 18 19  1  0  0  0
 10 11  1  0  0  0
  1  4  1  0  0  0
M  END
> <minimizedAffinity>
-7.16467

$$$$
ZINC000020615326


 23 25  0  0  0  0  0  0  0  0999 V2000
   -6.8453   17.7985  -10.2171 N   0  0  0  0  0  0  0  0  0  0  0  0
   -7.0728   18.5988  -11.2729 C   0  0  0  0  0  0  0  0  0  0  0  0
   -6.6182   18.4602  -12.3889 O   0  0  0  0  0  0  0  0  0  0  0  0
   -7.9912   19.6946  -10.8193 C   0  0  0  0  0  0  0  0  0  0  0  0
   -8.4297   20.6137  -11.4795 O   0  0  0  0  0  0  0  0  0  0  0  0
   -8.2449   19.4088   -9.3950 C   0  0  0  0  0  0  0  0  0  0  0  0
   -9.0075   20.0463   -8.4171 C   0  0  0  0  0  0  0  0  0  0  0  0
   -9.0509   19.5285   -7.1382 C   0  0  0  0  0  0  0  0  0  0  0  0
   -8.3397   18.3812   -6.8296 C   0  0  0  0  0  0  0  0  0  0  0  0
   -7.5803   17.7414   -7.7919 C   0  0  0  0  0  0  0  0  0  0  0  0
   -7.5268   18.2418   -9.0859 C   0  0  0  0  0  0  0  0  0  0  0  0
   -9.8589   20.2002   -6.0956 N   0  0  0  0  0  0  0  0  0  0  0  0
  -10.2070   19.5844   -5.1042 O   0  0  0  0  0  0  0  0  0  0  0  0
  -10.1756   21.3687   -6.2293 O   0  0  0  0  0  0  0  0  0  0  0  0
   -5.9935   16.6072  -10.2532 C   0  0  0  0  0  0  0  0  0  0  0  0
   -8.0613   10.9325  -11.0245 O   0  0  0  0  0  0  0  0  0  0  0  0
   -7.3859   11.5918  -11.7861 C   0  0  0  0  0  0  0  0  0  0  0  0
   -7.4105   12.9375  -11.7162 N   0  0  0  0  0  0  0  0  0  0  0  0
   -8.2447   13.6265  -10.7199 C   0  0  0  0  0  0  0  0  0  0  0  0
   -7.3711   14.6366   -9.9683 C   0  0  0  0  0  0  0  0  0  0  0  0
   -6.7040   15.5177  -10.9360 N   0  0  0  0  0  0  0  0  0  0  0  0
   -5.7950   14.7610  -11.8072 C   0  0  0  0  0  0  0  0  0  0  0  0
   -6.5993   13.7559  -12.6302 C   0  0  0  0  0  0  0  0  0  0  0  0
 16 17  2  0  0  0
 17 18  1  0  0  0
 18 23  1  0  0  0
 18 19  1  0  0  0
 19 20  1  0  0  0
 20 21  1  0  0  0
 21 15  1  0  0  0
 21 22  1  0  0  0
 15  1  1  0  0  0
  1 11  1  0  0  0
  1  2  1  0  0  0
  2  3  2  0  0  0
  2  4  1  0  0  0
  4  5  2  0  0  0
  4  6  1  0  0  0
  6 11  2  0  0  0
  6  7  1  0  0  0
  7  8  2  0  0  0
  8 12  1  0  0  0
  8  9  1  0  0  0
 12 13  1  0  0  0
 12 14  2  0  0  0
  9 10  2  0  0  0
 10 11  1  0  0  0
 22 23  1  0  0  0
M  CHG 1  12   1
M  CHG 1  13  -1
M  END
> <minimizedAffinity>
-8.43374

$$$$
ZINC000064875540


 23 25  0  0  0  0  0  0  0  0999 V2000
   -7.2039   17.4745   -8.8641 C   0  0  0  0  0  0  0  0  0  0  0  0
   -7.0133   16.7972   -7.7538 N   0  0  0  0  0  0  0  0  0  0  0  0
   -7.7106   17.3137   -6.8055 N   0  0  0  0  0  0  0  0  0  0  0  0
   -8.3811   18.3420   -7.2515 C   0  0  0  0  0  0  0  0  0  0  0  0
   -8.0801   18.4841   -8.5710 N   0  0  0  0  0  0  0  0  0  0  0  0
   -3.9411   14.0288  -10.7719 H   0  0  0  0  0  0  0  0  0  0  0  0
   -9.3127   19.2147   -6.4505 C   0  0  0  0  0  0  0  0  0  0  0  0
   -8.8527   19.2499   -4.9902 C   0  0  0  0  0  0  0  0  0  0  0  0
   -9.7551   20.1998   -4.1997 C   0  0  0  0  0  0  0  0  0  0  0  0
   -9.6730   21.5487   -4.7727 N   0  0  0  0  0  0  0  0  0  0  0  0
  -10.1799   21.5363   -6.1501 C   0  0  0  0  0  0  0  0  0  0  0  0
   -9.2939   20.6379   -7.0157 C   0  0  0  0  0  0  0  0  0  0  0  0
   -4.2312   14.1408  -11.2313 H   0  0  0  0  0  0  0  0  0  0  0  0
   -4.2312   14.1408  -11.2313 H   0  0  0  0  0  0  0  0  0  0  0  0
   -5.6168   15.6559  -11.7425 C   0  0  0  0  0  0  0  0  0  0  0  0
   -5.4238   16.6897  -12.6409 C   0  0  0  0  0  0  0  0  0  0  0  0
   -5.8076   17.9784  -12.3147 C   0  0  0  0  0  0  0  0  0  0  0  0
   -6.3859   18.2399  -11.0899 C   0  0  0  0  0  0  0  0  0  0  0  0
   -6.5839   17.2012  -10.1792 C   0  0  0  0  0  0  0  0  0  0  0  0
   -6.1995   15.9033  -10.5162 C   0  0  0  0  0  0  0  0  0  0  0  0
   -4.5926   13.5996  -11.2949 O   0  0  0  0  0  0  0  0  0  0  0  0
   -5.2033   14.2802  -12.0996 N   0  0  0  0  0  0  0  0  0  0  0  0
   -5.4781   13.8270  -13.1962 O   0  0  0  0  0  0  0  0  0  0  0  0
 21 22  1  0  0  0
 22 23  2  0  0  0
 22 15  1  0  0  0
 15 20  2  0  0  0
 15 16  1  0  0  0
 16 17  2  0  0  0
 17 18  1  0  0  0
 18 19  2  0  0  0
 19  1  1  0  0  0
 19 20  1  0  0  0
  1  5  1  0  0  0
  1  2  2  0  0  0
  2  3  1  0  0  0
  3  4  2  0  0  0
  4  7  1  0  0  0
  4  5  1  0  0  0
  7 12  1  0  0  0
  7  8  1  0  0  0
  8  9  1  0  0  0
  9 10  1  0  0  0
 10 11  1  0  0  0
 11 12  1  0  0  0
 10 13  1  0  0  0
 10 14  1  0  0  0
  5  6  1  0  0  0
M  CHG 1  10   1
M  CHG 1  21  -1
M  CHG 1  22   1
M  END
> <minimizedAffinity>
-7.69717

$$$$
ZINC000015730266


 25 28  0  0  0  0  0  0  0  0999 V2000
   -6.6482   17.0139  -12.2352 C   0  0  0  0  0  0  0  0  0  0  0  0
   -6.8702   17.6157  -11.0037 C   0  0  0  0  0  0  0  0  0  0  0  0
   -7.1900   16.8678   -9.9051 C   0  0  0  0  0  0  0  0  0  0  0  0
   -7.2960   15.4815  -10.0187 C   0  0  0  0  0  0  0  0  0  0  0  0
   -7.0714   14.8644  -11.2703 C   0  0  0  0  0  0  0  0  0  0  0  0
   -6.7460   15.6472  -12.3772 C   0  0  0  0  0  0  0  0  0  0  0  0
   -7.1903   13.4065  -11.3544 C   0  0  0  0  0  0  0  0  0  0  0  0
   -7.0525   12.5295  -12.3307 N   0  0  0  0  0  0  0  0  0  0  0  0
   -7.2642   11.3394  -11.8930 N   0  0  0  0  0  0  0  0  0  0  0  0
   -7.5467   11.3604  -10.6349 N   0  0  0  0  0  0  0  0  0  0  0  0
   -7.5114   12.7036  -10.2291 N   0  0  0  0  0  0  0  0  0  0  0  0
   -7.7275   13.3399   -9.0089 N   0  0  0  0  0  0  0  0  0  0  0  0
   -7.6362   14.6372   -8.8682 C   0  0  0  0  0  0  0  0  0  0  0  0
   -7.8622   15.2158   -7.6287 N   0  0  0  0  0  0  0  0  0  0  0  0
   -4.7717   13.8262  -11.1668 H   0  0  0  0  0  0  0  0  0  0  0  0
   -9.2273   15.3222   -7.1080 C   0  0  0  0  0  0  0  0  0  0  0  0
   -9.5557   16.7913   -6.8341 C   0  0  0  0  0  0  0  0  0  0  0  0
   -8.2974   17.5131   -6.3475 C   0  0  0  0  0  0  0  0  0  0  0  0
   -8.6448   18.8802   -5.9374 N   0  0  0  0  0  0  0  0  0  0  0  0
   -9.6819   18.8313   -4.8977 C   0  0  0  0  0  0  0  0  0  0  0  0
  -10.0419   20.2568   -4.4718 C   0  0  0  0  0  0  0  0  0  0  0  0
  -10.4798   20.9944   -5.6164 O   0  0  0  0  0  0  0  0  0  0  0  0
   -9.5117   21.0503   -6.6678 C   0  0  0  0  0  0  0  0  0  0  0  0
   -9.1506   19.6263   -7.0978 C   0  0  0  0  0  0  0  0  0  0  0  0
   -2.4724   13.8522  -11.6232 H   0  0  0  0  0  0  0  0  0  0  0  0
  1  6  2  0  0  0
  1  2  1  0  0  0
  2  3  2  0  0  0
  3  4  1  0  0  0
  4 13  1  0  0  0
  4  5  2  0  0  0
  5  6  1  0  0  0
  5  7  1  0  0  0
  7 11  1  0  0  0
  7  8  2  0  0  0
  8  9  1  0  0  0
  9 10  2  0  0  0
 10 11  1  0  0  0
 11 12  1  0  0  0
 12 13  2  0  0  0
 13 14  1  0  0  0
 14 16  1  0  0  0
 16 17  1  0  0  0
 17 18  1  0  0  0
 18 19  1  0  0  0
 19 24  1  0  0  0
 19 20  1  0  0  0
 20 21  1  0  0  0
 21 22  1  0  0  0
 22 23  1  0  0  0
 23 24  1  0  0  0
 14 15  1  0  0  0
 19 25  1  0  0  0
M  CHG 1  19   1
M  END
> <minimizedAffinity>
-7.78448

$$$$
ZINC000247914948


 33 34  0  0  0  0  0  0  0  0999 V2000
   -9.1346   17.5730   -7.9863 C   0  0  0  0  0  0  0  0  0  0  0  0
   -9.5313   16.2456   -7.3330 C   0  0  0  0  0  0  0  0  0  0  0  0
  -10.5592   16.4763   -6.3674 O   0  0  0  0  0  0  0  0  0  0  0  0
   -8.3042   15.6416   -6.6435 C   0  0  0  0  0  0  0  0  0  0  0  0
   -7.1830   15.4708   -7.6719 C   0  0  0  0  0  0  0  0  0  0  0  0
   -6.8842   16.7370   -8.2635 O   0  0  0  0  0  0  0  0  0  0  0  0
   -7.9820   17.3289   -8.9637 C   0  0  0  0  0  0  0  0  0  0  0  0
   -9.6200   19.2653   -6.2979 H   0  0  0  0  0  0  0  0  0  0  0  0
   -8.8964   20.6780   -5.7598 C   0  0  0  0  0  0  0  0  0  0  0  0
   -9.3355   19.7048   -6.8233 C   0  0  0  0  0  0  0  0  0  0  0  0
  -10.2538   19.9885   -7.5631 O   0  0  0  0  0  0  0  0  0  0  0  0
   -8.7078   18.5191   -6.9524 N   0  0  0  0  0  0  0  0  0  0  0  0
   -9.3342   19.7053   -6.8185 H   0  0  0  0  0  0  0  0  0  0  0  0
   -5.9524   14.9320   -6.9891 C   0  0  0  0  0  0  0  0  0  0  0  0
   -4.9296   15.5950   -6.9641 O   0  0  0  0  0  0  0  0  0  0  0  0
   -5.9796   13.8330   -6.4618 O   0  0  0  0  0  0  0  0  0  0  0  0
  -11.2641   13.1603   -8.1527 H   0  0  0  0  0  0  0  0  0  0  0  0
   -7.5390   18.6593   -9.5757 C   0  0  0  0  0  0  0  0  0  0  0  0
   -6.1544   18.8749   -9.2955 O   0  0  0  0  0  0  0  0  0  0  0  0
   -5.7529   18.0558   -6.1279 H   0  0  0  0  0  0  0  0  0  0  0  0
   -7.7527   18.6204  -11.0902 C   0  0  0  0  0  0  0  0  0  0  0  0
   -6.5156   18.3176  -11.7383 O   0  0  0  0  0  0  0  0  0  0  0  0
   -5.6343   19.1411   -6.1725 H   0  0  0  0  0  0  0  0  0  0  0  0
   -8.2593   19.9824  -11.5690 C   0  0  0  0  0  0  0  0  0  0  0  0
   -8.6490   20.7689  -10.4414 O   0  0  0  0  0  0  0  0  0  0  0  0
   -7.2664   15.3211  -15.3118 H   0  0  0  0  0  0  0  0  0  0  0  0
   -7.6031   14.5576   -8.6875 O   0  0  0  0  0  0  0  0  0  0  0  0
   -6.9551   14.6208   -9.8804 C   0  0  0  0  0  0  0  0  0  0  0  0
   -5.5875   14.3958   -9.9409 C   0  0  0  0  0  0  0  0  0  0  0  0
   -4.9310   14.4602  -11.1548 C   0  0  0  0  0  0  0  0  0  0  0  0
   -5.6358   14.7488  -12.3087 C   0  0  0  0  0  0  0  0  0  0  0  0
   -6.9989   14.9739  -12.2510 C   0  0  0  0  0  0  0  0  0  0  0  0
   -7.6609   14.9047  -11.0405 C   0  0  0  0  0  0  0  0  0  0  0  0
  9 10  1  0  0  0
 10 11  2  0  0  0
 10 12  1  0  0  0
 12  1  1  0  0  0
  1  7  1  0  0  0
  1  2  1  0  0  0
  2  3  1  0  0  0
  2  4  1  0  0  0
  4  5  1  0  0  0
  5 27  1  0  0  0
  5 14  1  0  0  0
  5  6  1  0  0  0
 27 28  1  0  0  0
 28 33  1  0  0  0
 28 29  2  0  0  0
 29 30  1  0  0  0
 30 31  2  0  0  0
 31 32  1  0  0  0
 32 33  2  0  0  0
 14 15  2  0  0  0
 14 16  1  0  0  0
  6  7  1  0  0  0
  7 18  1  0  0  0
 18 19  1  0  0  0
 18 21  1  0  0  0
 21 22  1  0  0  0
 21 24  1  0  0  0
 24 25  1  0  0  0
 12 13  1  0  0  0
  3  8  1  0  0  0
 16 17  1  0  0  0
 19 20  1  0  0  0
 22 23  1  0  0  0
 25 26  1  0  0  0
M  END
> <minimizedAffinity>
-7.05882

$$$$
ZINC000096130603


 33 36  0  0  0  0  0  0  0  0999 V2000
   -8.1646   20.3197  -11.5599 O   0  0  0  0  0  0  0  0  0  0  0  0
   -7.9593   19.3700  -10.8340 C   0  0  0  0  0  0  0  0  0  0  0  0
   -8.2224   19.4606   -9.5152 N   0  0  0  0  0  0  0  0  0  0  0  0
   -7.5874   20.8762  -12.5178 H   0  0  0  0  0  0  0  0  0  0  0  0
   -7.4161   18.0866  -11.4076 C   0  0  0  0  0  0  0  0  0  0  0  0
   -6.6145   18.3924  -12.6747 C   0  0  0  0  0  0  0  0  0  0  0  0
   -6.0821   17.1442  -13.2343 N   0  0  0  0  0  0  0  0  0  0  0  0
   -5.1474   16.5309  -12.2832 C   0  0  0  0  0  0  0  0  0  0  0  0
   -5.8925   16.1534  -11.0011 C   0  0  0  0  0  0  0  0  0  0  0  0
   -6.5013   17.4141  -10.3801 C   0  0  0  0  0  0  0  0  0  0  0  0
   -7.4955   19.1645   -8.6012 H   0  0  0  0  0  0  0  0  0  0  0  0
   -7.4955   19.1645   -8.6012 H   0  0  0  0  0  0  0  0  0  0  0  0
   -6.9895   15.1728  -11.3267 C   0  0  0  0  0  0  0  0  0  0  0  0
   -8.1501   15.4856  -11.1651 O   0  0  0  0  0  0  0  0  0  0  0  0
   -6.6808   13.9483  -11.7975 N   0  0  0  0  0  0  0  0  0  0  0  0
   -5.2815   13.5021  -11.8879 C   0  0  0  0  0  0  0  0  0  0  0  0
   -5.1683   12.1275  -11.2189 C   0  0  0  0  0  0  0  0  0  0  0  0
   -6.1513   11.2509  -11.7748 O   0  0  0  0  0  0  0  0  0  0  0  0
   -7.5004   11.6668  -11.5498 C   0  0  0  0  0  0  0  0  0  0  0  0
   -7.7336   13.0157  -12.2305 C   0  0  0  0  0  0  0  0  0  0  0  0
   -8.7561   20.7062   -8.9587 C   0  0  0  0  0  0  0  0  0  0  0  0
   -9.0989   20.5009   -7.5056 C   0  0  0  0  0  0  0  0  0  0  0  0
   -9.7024   21.3639   -6.7325 N   0  0  0  0  0  0  0  0  0  0  0  0
   -9.8449   20.8498   -5.5033 C   0  0  0  0  0  0  0  0  0  0  0  0
   -9.3257   19.6415   -5.4889 N   0  0  0  0  0  0  0  0  0  0  0  0
   -8.8410   19.3950   -6.7836 N   0  0  0  0  0  0  0  0  0  0  0  0
   -8.1330   20.5484  -12.6531 H   0  0  0  0  0  0  0  0  0  0  0  0
  -10.4830   21.5306   -4.3499 C   0  0  0  0  0  0  0  0  0  0  0  0
  -11.4664   22.4958   -4.5640 C   0  0  0  0  0  0  0  0  0  0  0  0
  -12.0313   23.0983   -3.5344 N   0  0  0  0  0  0  0  0  0  0  0  0
  -11.6661   22.7878   -2.3024 C   0  0  0  0  0  0  0  0  0  0  0  0
  -10.6899   21.8303   -2.0855 C   0  0  0  0  0  0  0  0  0  0  0  0
  -10.1231   21.2184   -3.1088 N   0  0  0  0  0  0  0  0  0  0  0  0
  1  2  2  0  0  0
  2  3  1  0  0  0
  2  5  1  0  0  0
  3 21  1  0  0  0
 21 22  1  0  0  0
 22 26  1  0  0  0
 22 23  2  0  0  0
 23 24  1  0  0  0
 24 28  1  0  0  0
 24 25  2  0  0  0
 28 33  1  0  0  0
 28 29  2  0  0  0
 29 30  1  0  0  0
 30 31  2  0  0  0
 31 32  1  0  0  0
 32 33  2  0  0  0
 25 26  1  0  0  0
  5 10  1  0  0  0
  5  6  1  0  0  0
  6  7  1  0  0  0
  7  8  1  0  0  0
  8  9  1  0  0  0
  9 13  1  0  0  0
  9 10  1  0  0  0
 13 14  2  0  0  0
 13 15  1  0  0  0
 15 20  1  0  0  0
 15 16  1  0  0  0
 16 17  1  0  0  0
 17 18  1  0  0  0
 18 19  1  0  0  0
 19 20  1  0  0  0
  3  4  1  0  0  0
 26 27  1  0  0  0
  7 11  1  0  0  0
  7 12  1  0  0  0
M  CHG 1   7   1
M  END
> <minimizedAffinity>
-8.53465

$$$$
ZINC000104028089


 35 40  0  0  0  0  0  0  0  0999 V2000
   -7.7110   18.6400   -1.4893 C   0  0  0  0  0  0  0  0  0  0  0  0
   -8.5627   18.0913   -0.5420 C   0  0  0  0  0  0  0  0  0  0  0  0
   -9.7852   17.5780   -0.9223 C   0  0  0  0  0  0  0  0  0  0  0  0
  -10.1746   17.6084   -2.2591 C   0  0  0  0  0  0  0  0  0  0  0  0
  -11.3393   17.1471   -2.8791 N   0  0  0  0  0  0  0  0  0  0  0  0
  -11.3280   17.3640   -4.2059 C   0  0  0  0  0  0  0  0  0  0  0  0
  -12.1997   17.0633   -4.9940 O   0  0  0  0  0  0  0  0  0  0  0  0
  -10.0226   18.0536   -4.5285 C   0  0  0  0  0  0  0  0  0  0  0  0
   -9.3184   18.1689   -3.2015 C   0  0  0  0  0  0  0  0  0  0  0  0
   -8.0973   18.6792   -2.8220 C   0  0  0  0  0  0  0  0  0  0  0  0
   -9.2313   17.3631   -5.5633 C   0  0  0  0  0  0  0  0  0  0  0  0
   -9.0435   16.0566   -6.1437 C   0  0  0  0  0  0  0  0  0  0  0  0
   -9.4818   14.9973   -5.7495 O   0  0  0  0  0  0  0  0  0  0  0  0
   -8.2554   16.2856   -7.2453 N   0  0  0  0  0  0  0  0  0  0  0  0
   -8.1354   17.6168   -7.5398 C   0  0  0  0  0  0  0  0  0  0  0  0
   -7.2677   18.1506   -8.1968 O   0  0  0  0  0  0  0  0  0  0  0  0
   -9.3361   18.2707   -6.8736 C   0  0  0  0  0  0  0  0  0  0  0  0
   -9.1643   19.5494   -6.1115 C   0  0  0  0  0  0  0  0  0  0  0  0
   -9.4607   20.9314   -6.6258 C   0  0  0  0  0  0  0  0  0  0  0  0
   -9.7212   21.6882   -5.2818 C   0  0  0  0  0  0  0  0  0  0  0  0
  -10.1215   20.5707   -4.2753 C   0  0  0  0  0  0  0  0  0  0  0  0
  -10.2936   19.3882   -5.1029 N   0  0  0  0  0  0  0  0  0  0  0  0
   -6.5034   19.1395   -1.1095 H   0  0  0  0  0  0  0  0  0  0  0  0
   -6.5034   19.1395   -1.1095 H   0  0  0  0  0  0  0  0  0  0  0  0
   -7.6406   15.2669   -7.9868 C   0  0  0  0  0  0  0  0  0  0  0  0
   -8.2817   14.7292   -9.0946 C   0  0  0  0  0  0  0  0  0  0  0  0
   -7.6733   13.7260   -9.8235 C   0  0  0  0  0  0  0  0  0  0  0  0
   -6.4272   13.2568   -9.4504 C   0  0  0  0  0  0  0  0  0  0  0  0
   -5.7863   13.7904   -8.3474 C   0  0  0  0  0  0  0  0  0  0  0  0
   -6.3872   14.7978   -7.6181 C   0  0  0  0  0  0  0  0  0  0  0  0
   -5.7780   12.1816  -10.2334 N   0  0  0  0  0  0  0  0  0  0  0  0
   -5.2635   12.4362  -11.3078 O   0  0  0  0  0  0  0  0  0  0  0  0
   -5.7581   11.0421   -9.8036 O   0  0  0  0  0  0  0  0  0  0  0  0
   -5.6717   18.3002   -0.3142 C   0  0  0  0  0  0  0  0  0  0  0  0
   -6.5049   19.1425   -1.1132 O   0  0  0  0  0  0  0  0  0  0  0  0
 34 35  1  0  0  0
 35  1  1  0  0  0
  1 10  2  0  0  0
  1  2  1  0  0  0
  2  3  2  0  0  0
  3  4  1  0  0  0
  4  9  2  0  0  0
  4  5  1  0  0  0
  5  6  1  0  0  0
  6  7  2  0  0  0
  8  6  1  0  0  0
  8 22  1  0  0  0
  8  9  1  0  0  0
  8 11  1  0  0  0
  9 10  1  0  0  0
 11 17  1  0  0  0
 11 12  1  0  0  0
 12 13  2  0  0  0
 12 14  1  0  0  0
 14 25  1  0  0  0
 14 15  1  0  0  0
 25 30  1  0  0  0
 25 26  2  0  0  0
 26 27  1  0  0  0
 27 28  2  0  0  0
 28 31  1  0  0  0
 28 29  1  0  0  0
 31 32  1  0  0  0
 31 33  2  0  0  0
 29 30  2  0  0  0
 15 16  2  0  0  0
 15 17  1  0  0  0
 17 18  1  0  0  0
 18 22  1  0  0  0
 18 19  1  0  0  0
 19 20  1  0  0  0
 20 21  1  0  0  0
 21 22  1  0  0  0
  5 23  1  0  0  0
 22 24  1  0  0  0
M  CHG 1  22   1
M  CHG 1  31   1
M  CHG 1  32  -1
M  END
> <minimizedAffinity>
-9.17669

$$$$
ZINC000079411126


 25 26  0  0  0  0  0  0  0  0999 V2000
   -7.4628   16.8517   -8.6767 N   0  0  0  0  0  0  0  0  0  0  0  0
   -8.1067   18.0079   -8.9324 C   0  0  0  0  0  0  0  0  0  0  0  0
   -7.7652   18.6985   -9.8721 O   0  0  0  0  0  0  0  0  0  0  0  0
   -8.9638   15.1235   -7.8155 C   0  0  0  0  0  0  0  0  0  0  0  0
   -7.8069   16.0693   -7.4869 C   0  0  0  0  0  0  0  0  0  0  0  0
   -6.5909   15.2530   -7.0441 C   0  0  0  0  0  0  0  0  0  0  0  0
   -6.4189   16.3775   -9.5887 C   0  0  0  0  0  0  0  0  0  0  0  0
   -7.0506   15.5132  -10.6818 C   0  0  0  0  0  0  0  0  0  0  0  0
   -6.8464   16.1773  -12.0597 C   0  0  0  0  0  0  0  0  0  0  0  0
   -5.5965   15.4469  -12.6178 C   0  0  0  0  0  0  0  0  0  0  0  0
   -5.8043   14.0114  -12.0742 C   0  0  0  0  0  0  0  0  0  0  0  0
   -6.3887   14.1964  -10.7252 N   0  0  0  0  0  0  0  0  0  0  0  0
   -7.6816   17.5812   -7.9568 H   0  0  0  0  0  0  0  0  0  0  0  0
   -7.3727   13.1376  -10.4632 C   0  0  0  0  0  0  0  0  0  0  0  0
   -7.6236   12.3454  -11.7478 C   0  0  0  0  0  0  0  0  0  0  0  0
   -7.7297   10.9547  -11.4368 O   0  0  0  0  0  0  0  0  0  0  0  0
   -6.8324   12.4909   -5.4221 H   0  0  0  0  0  0  0  0  0  0  0  0
   -9.1281   18.3975   -8.1466 O   0  0  0  0  0  0  0  0  0  0  0  0
   -9.1891   19.8049   -7.7943 C   0  0  0  0  0  0  0  0  0  0  0  0
   -9.2181   19.9463   -6.2943 C   0  0  0  0  0  0  0  0  0  0  0  0
   -8.7533   18.9194   -5.4941 C   0  0  0  0  0  0  0  0  0  0  0  0
   -8.7799   19.0492   -4.1181 C   0  0  0  0  0  0  0  0  0  0  0  0
   -9.2710   20.2061   -3.5423 C   0  0  0  0  0  0  0  0  0  0  0  0
   -9.7349   21.2333   -4.3426 C   0  0  0  0  0  0  0  0  0  0  0  0
   -9.7043   21.1053   -5.7186 C   0  0  0  0  0  0  0  0  0  0  0  0
  4  5  1  0  0  0
  5  6  1  0  0  0
  5  1  1  0  0  0
  1  7  1  0  0  0
  1  2  1  0  0  0
  7  8  1  0  0  0
  8 12  1  0  0  0
  8  9  1  0  0  0
  9 10  1  0  0  0
 10 11  1  0  0  0
 11 12  1  0  0  0
 12 14  1  0  0  0
 14 15  1  0  0  0
 15 16  1  0  0  0
  2  3  2  0  0  0
  2 18  1  0  0  0
 18 19  1  0  0  0
 19 20  1  0  0  0
 20 25  1  0  0  0
 20 21  2  0  0  0
 21 22  1  0  0  0
 22 23  2  0  0  0
 23 24  1  0  0  0
 24 25  2  0  0  0
 12 13  1  0  0  0
 16 17  1  0  0  0
M  CHG 1  12   1
M  END
> <minimizedAffinity>
-6.40055

$$$$
ZINC000225244967


 23 24  0  0  0  0  0  0  0  0999 V2000
   -6.6664   16.2765  -13.4676 N   0  0  0  0  0  0  0  0  0  0  0  0
   -6.5918   16.0923  -12.1797 C   0  0  0  0  0  0  0  0  0  0  0  0
   -7.3509   15.7377  -13.8819 H   0  0  0  0  0  0  0  0  0  0  0  0
   -7.3509   15.7377  -13.8819 H   0  0  0  0  0  0  0  0  0  0  0  0
   -6.9533   14.8822  -11.6363 N   0  0  0  0  0  0  0  0  0  0  0  0
   -8.3134   14.3567  -11.8173 C   0  0  0  0  0  0  0  0  0  0  0  0
   -8.2223   12.9420  -12.3979 C   0  0  0  0  0  0  0  0  0  0  0  0
   -7.3308   12.0824  -11.4988 C   0  0  0  0  0  0  0  0  0  0  0  0
   -7.2696   10.7532  -12.0199 O   0  0  0  0  0  0  0  0  0  0  0  0
   -5.9218   12.6782  -11.4549 C   0  0  0  0  0  0  0  0  0  0  0  0
   -5.9851   14.0871  -10.8687 C   0  0  0  0  0  0  0  0  0  0  0  0
   -4.9960   15.4422  -12.9735 H   0  0  0  0  0  0  0  0  0  0  0  0
   -6.1509   17.1099  -11.3629 N   0  0  0  0  0  0  0  0  0  0  0  0
   -8.1594   15.2555  -12.8445 H   0  0  0  0  0  0  0  0  0  0  0  0
   -7.0310   18.1125  -10.9622 C   0  0  0  0  0  0  0  0  0  0  0  0
   -7.3942   19.0493  -11.8239 N   0  0  0  0  0  0  0  0  0  0  0  0
   -8.2257   20.0161  -11.4853 C   0  0  0  0  0  0  0  0  0  0  0  0
   -8.7499   20.0848  -10.2100 C   0  0  0  0  0  0  0  0  0  0  0  0
   -8.3940   19.1210   -9.2758 C   0  0  0  0  0  0  0  0  0  0  0  0
   -7.5248   18.1166   -9.6621 C   0  0  0  0  0  0  0  0  0  0  0  0
   -7.1166   17.0673   -8.7013 N   0  0  0  0  0  0  0  0  0  0  0  0
   -6.0768   17.1836   -8.0776 O   0  0  0  0  0  0  0  0  0  0  0  0
   -7.8205   16.0875   -8.5341 O   0  0  0  0  0  0  0  0  0  0  0  0
  1  2  2  0  0  0
  2 13  1  0  0  0
  2  5  1  0  0  0
 13 15  1  0  0  0
 15 20  1  0  0  0
 15 16  2  0  0  0
 16 17  1  0  0  0
 17 18  2  0  0  0
 18 19  1  0  0  0
 19 20  2  0  0  0
 20 21  1  0  0  0
 21 22  1  0  0  0
 21 23  2  0  0  0
  5 11  1  0  0  0
  5  6  1  0  0  0
  6  7  1  0  0  0
  7  8  1  0  0  0
  8  9  1  0  0  0
  8 10  1  0  0  0
 10 11  1  0  0  0
  1  3  1  0  0  0
  1  4  1  0  0  0
 13 14  1  0  0  0
  9 12  1  0  0  0
M  CHG 1   1   1
M  CHG 1  21   1
M  CHG 1  22  -1
M  END
> <minimizedAffinity>
-7.03483

$$$$
ZINC000670457480


 34 37  0  0  0  0  0  0  0  0999 V2000
   -8.9405   14.7790   -7.1391 O   0  0  0  0  0  0  0  0  0  0  0  0
   -8.6008   15.6602   -7.9040 C   0  0  0  0  0  0  0  0  0  0  0  0
   -8.0375   15.3452   -9.0872 N   0  0  0  0  0  0  0  0  0  0  0  0
   -8.6317   14.8079   -7.0783 H   0  0  0  0  0  0  0  0  0  0  0  0
   -8.8112   17.0792   -7.5387 C   0  0  0  0  0  0  0  0  0  0  0  0
   -9.3734   17.9614   -8.4625 C   0  0  0  0  0  0  0  0  0  0  0  0
   -9.5698   19.2825   -8.1222 C   0  0  0  0  0  0  0  0  0  0  0  0
   -9.2065   19.7379   -6.8540 C   0  0  0  0  0  0  0  0  0  0  0  0
   -8.6448   18.8555   -5.9302 C   0  0  0  0  0  0  0  0  0  0  0  0
   -8.4529   17.5333   -6.2687 C   0  0  0  0  0  0  0  0  0  0  0  0
   -9.4174   21.1568   -6.4886 C   0  0  0  0  0  0  0  0  0  0  0  0
   -8.9225   22.0380   -7.1634 O   0  0  0  0  0  0  0  0  0  0  0  0
  -10.1585   21.4714   -5.4077 N   0  0  0  0  0  0  0  0  0  0  0  0
  -10.6566   20.4255   -4.5003 C   0  0  0  0  0  0  0  0  0  0  0  0
  -10.2895   20.8165   -3.0642 C   0  0  0  0  0  0  0  0  0  0  0  0
  -10.7431   22.1478   -2.8082 O   0  0  0  0  0  0  0  0  0  0  0  0
  -10.1337   23.1426   -3.6344 C   0  0  0  0  0  0  0  0  0  0  0  0
  -10.4881   22.8714   -5.0967 C   0  0  0  0  0  0  0  0  0  0  0  0
   -7.8348   13.9408   -9.4513 C   0  0  0  0  0  0  0  0  0  0  0  0
   -8.2602   13.7242  -10.9049 C   0  0  0  0  0  0  0  0  0  0  0  0
   -7.7784   12.3502  -11.3794 C   0  0  0  0  0  0  0  0  0  0  0  0
   -6.2478   12.3175  -11.3467 C   0  0  0  0  0  0  0  0  0  0  0  0
   -5.7002   13.4547  -12.2120 C   0  0  0  0  0  0  0  0  0  0  0  0
   -6.1749   14.7424  -11.6917 N   0  0  0  0  0  0  0  0  0  0  0  0
   -7.6391   14.8098  -11.7864 C   0  0  0  0  0  0  0  0  0  0  0  0
   -7.7974   13.9484   -6.8024 H   0  0  0  0  0  0  0  0  0  0  0  0
   -5.5858   15.8340  -12.4788 C   0  0  0  0  0  0  0  0  0  0  0  0
   -5.4202   17.0700  -11.5923 C   0  0  0  0  0  0  0  0  0  0  0  0
   -6.3621   18.1509  -12.0565 C   0  0  0  0  0  0  0  0  0  0  0  0
   -6.4438   18.4664  -13.4000 C   0  0  0  0  0  0  0  0  0  0  0  0
   -7.3078   19.4579  -13.8258 C   0  0  0  0  0  0  0  0  0  0  0  0
   -8.0904   20.1337  -12.9083 C   0  0  0  0  0  0  0  0  0  0  0  0
   -8.0092   19.8177  -11.5649 C   0  0  0  0  0  0  0  0  0  0  0  0
   -7.1484   18.8232  -11.1397 C   0  0  0  0  0  0  0  0  0  0  0  0
  1  2  2  0  0  0
  2  3  1  0  0  0
  2  5  1  0  0  0
  3 19  1  0  0  0
 19 20  1  0  0  0
 20 25  1  0  0  0
 20 21  1  0  0  0
 21 22  1  0  0  0
 22 23  1  0  0  0
 23 24  1  0  0  0
 24 27  1  0  0  0
 24 25  1  0  0  0
 27 28  1  0  0  0
 28 29  1  0  0  0
 29 34  1  0  0  0
 29 30  2  0  0  0
 30 31  1  0  0  0
 31 32  2  0  0  0
 32 33  1  0  0  0
 33 34  2  0  0  0
  5 10  1  0  0  0
  5  6  2  0  0  0
  6  7  1  0  0  0
  7  8  2  0  0  0
  8 11  1  0  0  0
  8  9  1  0  0  0
 11 12  2  0  0  0
 11 13  1  0  0  0
 13 18  1  0  0  0
 13 14  1  0  0  0
 14 15  1  0  0  0
 15 16  1  0  0  0
 16 17  1  0  0  0
 17 18  1  0  0  0
  9 10  2  0  0  0
  3  4  1  0  0  0
 24 26  1  0  0  0
M  CHG 1  24   1
M  END
> <minimizedAffinity>
-8.98806

$$$$
ZINC000225554032


 24 25  0  0  0  0  0  0  0  0999 V2000
   -6.1108   17.0038   -7.7536 N   0  0  0  0  0  0  0  0  0  0  0  0
   -5.8539   19.7905   -7.7231 H   0  0  0  0  0  0  0  0  0  0  0  0
   -8.2489   18.0656   -7.3371 C   0  0  0  0  0  0  0  0  0  0  0  0
   -9.2991   18.8676   -7.7650 C   0  0  0  0  0  0  0  0  0  0  0  0
   -9.2831   19.4121   -9.0312 C   0  0  0  0  0  0  0  0  0  0  0  0
   -8.2091   19.1587   -9.8882 C   0  0  0  0  0  0  0  0  0  0  0  0
   -7.1504   18.3518   -9.4591 C   0  0  0  0  0  0  0  0  0  0  0  0
   -7.1688   17.8122   -8.1870 C   0  0  0  0  0  0  0  0  0  0  0  0
   -8.6245   18.3534   -4.9057 C   0  0  0  0  0  0  0  0  0  0  0  0
   -8.2696   17.5168   -6.0548 N   0  0  0  0  0  0  0  0  0  0  0  0
   -8.2689   17.5213   -6.0526 H   0  0  0  0  0  0  0  0  0  0  0  0
   -8.1921   19.7246  -11.2035 C   0  0  0  0  0  0  0  0  0  0  0  0
   -8.1786   20.1735  -12.2470 N   0  0  0  0  0  0  0  0  0  0  0  0
   -6.2693   15.3555   -7.7658 S   0  0  0  0  0  0  0  0  0  0  0  0
   -4.9552   14.8268   -7.8797 O   0  0  0  0  0  0  0  0  0  0  0  0
   -7.1486   15.0290   -6.6983 O   0  0  0  0  0  0  0  0  0  0  0  0
   -7.1100   14.9233   -9.2528 C   0  0  0  0  0  0  0  0  0  0  0  0
   -8.4006   14.4327   -9.1994 C   0  0  0  0  0  0  0  0  0  0  0  0
   -9.0606   14.0935  -10.3661 C   0  0  0  0  0  0  0  0  0  0  0  0
   -8.4302   14.2442  -11.5870 C   0  0  0  0  0  0  0  0  0  0  0  0
   -9.1507   13.8735  -12.8576 C   0  0  0  0  0  0  0  0  0  0  0  0
   -7.1393   14.7351  -11.6428 C   0  0  0  0  0  0  0  0  0  0  0  0
   -6.4796   15.0805  -10.4758 C   0  0  0  0  0  0  0  0  0  0  0  0
   -5.2179   15.5605  -10.5291 F   0  0  0  0  0  0  0  0  0  0  0  0
  9 10  1  0  0  0
 10  3  1  0  0  0
  3  8  2  0  0  0
  3  4  1  0  0  0
  4  5  2  0  0  0
  5  6  1  0  0  0
  6 12  1  0  0  0
  6  7  2  0  0  0
 12 13  3  0  0  0
  7  8  1  0  0  0
  8  1  1  0  0  0
  1 14  1  0  0  0
 14 15  2  0  0  0
 14 16  2  0  0  0
 14 17  1  0  0  0
 17 23  1  0  0  0
 17 18  2  0  0  0
 18 19  1  0  0  0
 19 20  2  0  0  0
 20 21  1  0  0  0
 20 22  1  0  0  0
 22 23  2  0  0  0
 23 24  1  0  0  0
 10 11  1  0  0  0
  1  2  1  0  0  0
M  END
> <minimizedAffinity>
-7.79674

$$$$
ZINC000004963178


 24 26  0  0  0  0  0  0  0  0999 V2000
   -8.6940   18.4746   -8.1857 C   0  0  0  0  0  0  0  0  0  0  0  0
   -9.0776   19.7507   -8.4399 C   0  0  0  0  0  0  0  0  0  0  0  0
   -8.6231   20.4443   -9.5639 C   0  0  0  0  0  0  0  0  0  0  0  0
   -7.7751   19.8787  -10.4586 C   0  0  0  0  0  0  0  0  0  0  0  0
   -7.3331   18.5531  -10.2585 C   0  0  0  0  0  0  0  0  0  0  0  0
   -6.5345   17.7315  -10.9151 N   0  0  0  0  0  0  0  0  0  0  0  0
   -6.4686   16.5147  -10.2269 N   0  0  0  0  0  0  0  0  0  0  0  0
   -7.2320   16.5694   -9.1270 C   0  0  0  0  0  0  0  0  0  0  0  0
   -7.8083   17.8248   -9.0717 C   0  0  0  0  0  0  0  0  0  0  0  0
   -5.6808   15.3530  -10.6465 C   0  0  0  0  0  0  0  0  0  0  0  0
   -5.9373   14.2302   -9.7750 O   0  0  0  0  0  0  0  0  0  0  0  0
   -5.5386   13.0646  -10.5289 C   0  0  0  0  0  0  0  0  0  0  0  0
   -6.0326   13.3366  -11.9671 C   0  0  0  0  0  0  0  0  0  0  0  0
   -7.3146   12.7412  -12.1771 O   0  0  0  0  0  0  0  0  0  0  0  0
   -6.1264   14.8786  -12.0474 C   0  0  0  0  0  0  0  0  0  0  0  0
   -5.2482   15.3817  -13.0563 O   0  0  0  0  0  0  0  0  0  0  0  0
   -9.8336   18.3906   -6.1463 H   0  0  0  0  0  0  0  0  0  0  0  0
   -9.8336   18.3906   -6.1463 H   0  0  0  0  0  0  0  0  0  0  0  0
   -6.2060   11.8098   -9.9624 C   0  0  0  0  0  0  0  0  0  0  0  0
   -7.1232   12.1822   -8.9319 O   0  0  0  0  0  0  0  0  0  0  0  0
  -11.9075   15.5265  -14.9332 H   0  0  0  0  0  0  0  0  0  0  0  0
   -8.6870   17.9811   -5.8980 O   0  0  0  0  0  0  0  0  0  0  0  0
   -9.1961   17.7707   -6.9843 N   0  0  0  0  0  0  0  0  0  0  0  0
  -10.1215   16.9848   -7.0812 O   0  0  0  0  0  0  0  0  0  0  0  0
 22 23  1  0  0  0
 23 24  2  0  0  0
 23  1  1  0  0  0
  1  9  1  0  0  0
  1  2  2  0  0  0
  2  3  1  0  0  0
  3  4  2  0  0  0
  4  5  1  0  0  0
  5  9  1  0  0  0
  5  6  2  0  0  0
  6  7  1  0  0  0
  7 10  1  0  0  0
  7  8  1  0  0  0
 10 15  1  0  0  0
 10 11  1  0  0  0
 11 12  1  0  0  0
 12 19  1  0  0  0
 12 13  1  0  0  0
 19 20  1  0  0  0
 13 14  1  0  0  0
 13 15  1  0  0  0
 15 16  1  0  0  0
  8  9  2  0  0  0
 20 21  1  0  0  0
 14 17  1  0  0  0
 16 18  1  0  0  0
M  CHG 1  22  -1
M  CHG 1  23   1
M  END
> <minimizedAffinity>
-7.60662

$$$$
ZINC000013131012


 31 33  0  0  0  0  0  0  0  0999 V2000
   -6.7507   15.2105   -9.9676 C   0  0  0  0  0  0  0  0  0  0  0  0
   -7.5138   15.8496   -8.8309 C   0  0  0  0  0  0  0  0  0  0  0  0
   -8.7530   15.3054   -8.8376 C   0  0  0  0  0  0  0  0  0  0  0  0
   -9.7483   15.6115   -7.9739 O   0  0  0  0  0  0  0  0  0  0  0  0
   -8.8465   14.3242   -9.9391 C   0  0  0  0  0  0  0  0  0  0  0  0
   -9.8335   13.6682  -10.2067 O   0  0  0  0  0  0  0  0  0  0  0  0
   -7.6761   14.2649  -10.6028 N   0  0  0  0  0  0  0  0  0  0  0  0
   -2.8743   16.6666  -11.4790 H   0  0  0  0  0  0  0  0  0  0  0  0
   -6.7782   18.2693  -12.1862 C   0  0  0  0  0  0  0  0  0  0  0  0
   -5.5282   18.1874  -12.7820 C   0  0  0  0  0  0  0  0  0  0  0  0
   -4.6799   17.1440  -12.4645 C   0  0  0  0  0  0  0  0  0  0  0  0
   -5.0760   16.1820  -11.5542 C   0  0  0  0  0  0  0  0  0  0  0  0
   -6.3219   16.2611  -10.9591 C   0  0  0  0  0  0  0  0  0  0  0  0
   -7.1712   17.3056  -11.2685 C   0  0  0  0  0  0  0  0  0  0  0  0
   -7.5891   19.7669  -13.8450 C   0  0  0  0  0  0  0  0  0  0  0  0
   -7.6142   19.2948  -12.4965 O   0  0  0  0  0  0  0  0  0  0  0  0
   -7.0093   16.8640   -7.9004 C   0  0  0  0  0  0  0  0  0  0  0  0
   -5.9002   16.7456   -7.4140 O   0  0  0  0  0  0  0  0  0  0  0  0
   -7.8474   18.0302   -7.5534 C   0  0  0  0  0  0  0  0  0  0  0  0
   -8.2491   18.9258   -8.5478 C   0  0  0  0  0  0  0  0  0  0  0  0
   -9.0308   20.0119   -8.2184 C   0  0  0  0  0  0  0  0  0  0  0  0
   -9.4185   20.2169   -6.9026 C   0  0  0  0  0  0  0  0  0  0  0  0
  -10.1845   21.2835   -6.5852 F   0  0  0  0  0  0  0  0  0  0  0  0
   -9.0231   19.3308   -5.9116 C   0  0  0  0  0  0  0  0  0  0  0  0
   -8.2462   18.2383   -6.2305 C   0  0  0  0  0  0  0  0  0  0  0  0
   -7.3809   13.4096  -11.7550 C   0  0  0  0  0  0  0  0  0  0  0  0
   -7.0988   11.9850  -11.2735 C   0  0  0  0  0  0  0  0  0  0  0  0
   -5.6834   11.8662  -10.8982 N   0  0  0  0  0  0  0  0  0  0  0  0
   -5.2767   10.4561  -10.9619 C   0  0  0  0  0  0  0  0  0  0  0  0
   -4.8628   12.6549  -11.8270 C   0  0  0  0  0  0  0  0  0  0  0  0
   -9.3012   16.3232   -8.3278 H   0  0  0  0  0  0  0  0  0  0  0  0
 15 16  1  0  0  0
 16  9  1  0  0  0
  9 14  2  0  0  0
  9 10  1  0  0  0
 10 11  2  0  0  0
 11 12  1  0  0  0
 12 13  2  0  0  0
 13  1  1  0  0  0
 13 14  1  0  0  0
  1  7  1  0  0  0
  1  2  1  0  0  0
  2 17  1  0  0  0
  2  3  2  0  0  0
 17 18  2  0  0  0
 17 19  1  0  0  0
 19 25  1  0  0  0
 19 20  2  0  0  0
 20 21  1  0  0  0
 21 22  2  0  0  0
 22 23  1  0  0  0
 22 24  1  0  0  0
 24 25  2  0  0  0
  3  4  1  0  0  0
  3  5  1  0  0  0
  5  6  2  0  0  0
  5  7  1  0  0  0
  7 26  1  0  0  0
 26 27  1  0  0  0
 27 28  1  0  0  0
 28 29  1  0  0  0
 28 30  1  0  0  0
  4  8  1  0  0  0
 28 31  1  0  0  0
M  CHG 1  28   1
M  END
> <minimizedAffinity>
-7.98792

$$$$
ZINC000022829597


 28 29  0  0  0  0  0  0  0  0999 V2000
   -9.5304   16.6282   -7.3958 N   0  0  0  0  0  0  0  0  0  0  0  0
   -9.2844   15.3107   -7.5372 C   0  0  0  0  0  0  0  0  0  0  0  0
   -9.3733   14.5709   -6.5803 O   0  0  0  0  0  0  0  0  0  0  0  0
  -11.5550   22.8883   -3.7081 H   0  0  0  0  0  0  0  0  0  0  0  0
   -9.9053   17.1668   -6.0860 C   0  0  0  0  0  0  0  0  0  0  0  0
   -9.3307   18.5763   -5.9307 C   0  0  0  0  0  0  0  0  0  0  0  0
  -10.1473   19.3484   -4.8924 C   0  0  0  0  0  0  0  0  0  0  0  0
   -9.0884   24.7464   -6.1115 C   0  0  0  0  0  0  0  0  0  0  0  0
   -9.0595   23.3288   -5.7273 N   0  0  0  0  0  0  0  0  0  0  0  0
   -9.4441   22.4694   -6.8557 C   0  0  0  0  0  0  0  0  0  0  0  0
   -9.3439   21.0021   -6.4327 C   0  0  0  0  0  0  0  0  0  0  0  0
  -10.2305   20.7610   -5.2868 N   0  0  0  0  0  0  0  0  0  0  0  0
   -9.8187   21.6084   -4.1600 C   0  0  0  0  0  0  0  0  0  0  0  0
   -9.9229   23.0807   -4.5641 C   0  0  0  0  0  0  0  0  0  0  0  0
   -9.1605   22.7034   -6.7432 H   0  0  0  0  0  0  0  0  0  0  0  0
   -8.8988   14.7566   -8.8846 C   0  0  0  0  0  0  0  0  0  0  0  0
   -7.4976   15.0811   -9.1632 N   0  0  0  0  0  0  0  0  0  0  0  0
   -7.1781   16.2271   -9.8959 C   0  0  0  0  0  0  0  0  0  0  0  0
   -6.8237   17.3973   -9.2379 C   0  0  0  0  0  0  0  0  0  0  0  0
   -6.5084   18.5287   -9.9652 C   0  0  0  0  0  0  0  0  0  0  0  0
   -6.5455   18.4972  -11.3469 C   0  0  0  0  0  0  0  0  0  0  0  0
   -6.8985   17.3337  -12.0062 C   0  0  0  0  0  0  0  0  0  0  0  0
   -7.2090   16.1968  -11.2853 C   0  0  0  0  0  0  0  0  0  0  0  0
   -7.6917   14.6063  -12.1871 Br  0  0  0  0  0  0  0  0  0  0  0  0
   -6.2922   14.0895   -8.6097 S   0  0  0  0  0  0  0  0  0  0  0  0
   -5.9065   14.7259   -6.9553 C   0  0  0  0  0  0  0  0  0  0  0  0
   -6.9038   12.8098   -8.5216 O   0  0  0  0  0  0  0  0  0  0  0  0
   -5.2092   14.3242   -9.4992 O   0  0  0  0  0  0  0  0  0  0  0  0
  8  9  1  0  0  0
  9 14  1  0  0  0
  9 10  1  0  0  0
 10 11  1  0  0  0
 11 12  1  0  0  0
 12  7  1  0  0  0
 12 13  1  0  0  0
  7  6  1  0  0  0
  6  5  1  0  0  0
  5  1  1  0  0  0
  1  2  1  0  0  0
  2  3  2  0  0  0
  2 16  1  0  0  0
 16 17  1  0  0  0
 17 18  1  0  0  0
 17 25  1  0  0  0
 18 23  1  0  0  0
 18 19  2  0  0  0
 19 20  1  0  0  0
 20 21  2  0  0  0
 21 22  1  0  0  0
 22 23  2  0  0  0
 23 24  1  0  0  0
 25 26  1  0  0  0
 25 27  2  0  0  0
 25 28  2  0  0  0
 13 14  1  0  0  0
 12 15  1  0  0  0
  1  4  1  0  0  0
M  CHG 1  12   1
M  END
> <minimizedAffinity>
-7.25607

$$$$
ZINC000003916663


 36 39  0  0  0  0  0  0  0  0999 V2000
   -7.2930   15.9416  -10.6615 C   0  0  0  0  0  0  0  0  0  0  0  0
   -7.6582   14.6414  -10.1510 O   0  0  0  0  0  0  0  0  0  0  0  0
   -6.7962   13.6833  -10.7878 C   0  0  0  0  0  0  0  0  0  0  0  0
   -5.4966   14.4185  -11.1687 C   0  0  0  0  0  0  0  0  0  0  0  0
   -5.2767   14.3475  -12.5789 O   0  0  0  0  0  0  0  0  0  0  0  0
   -5.7458   15.8848  -10.7326 C   0  0  0  0  0  0  0  0  0  0  0  0
   -5.2402   16.7996  -11.7071 O   0  0  0  0  0  0  0  0  0  0  0  0
   -9.0126   20.7125   -7.5633 H   0  0  0  0  0  0  0  0  0  0  0  0
   -9.0126   20.7125   -7.5633 H   0  0  0  0  0  0  0  0  0  0  0  0
   -9.3922   22.1107   -7.3725 C   0  0  0  0  0  0  0  0  0  0  0  0
   -9.0327   20.7043   -7.5706 N   0  0  0  0  0  0  0  0  0  0  0  0
   -9.0662   19.8204   -6.4830 N   0  0  0  0  0  0  0  0  0  0  0  0
   -8.7670   18.5467   -6.5378 C   0  0  0  0  0  0  0  0  0  0  0  0
   -8.8324   17.7510   -5.3989 N   0  0  0  0  0  0  0  0  0  0  0  0
   -8.3598   17.9753   -7.8344 C   0  0  0  0  0  0  0  0  0  0  0  0
   -7.9765   16.8120   -8.3934 C   0  0  0  0  0  0  0  0  0  0  0  0
   -7.7288   16.9971   -9.7438 N   0  0  0  0  0  0  0  0  0  0  0  0
   -7.9456   18.2952  -10.1035 C   0  0  0  0  0  0  0  0  0  0  0  0
   -7.8968   19.0921  -11.1757 N   0  0  0  0  0  0  0  0  0  0  0  0
   -8.2108   20.3700  -11.0596 C   0  0  0  0  0  0  0  0  0  0  0  0
   -8.5874   20.9766   -9.9382 N   0  0  0  0  0  0  0  0  0  0  0  0
   -8.6724   20.2658   -8.8196 C   0  0  0  0  0  0  0  0  0  0  0  0
   -8.3382   18.9294   -8.9405 C   0  0  0  0  0  0  0  0  0  0  0  0
   -9.0321   20.7083   -7.5677 H   0  0  0  0  0  0  0  0  0  0  0  0
   -9.0321   20.7083   -7.5677 H   0  0  0  0  0  0  0  0  0  0  0  0
   -9.0321   20.7083   -7.5677 H   0  0  0  0  0  0  0  0  0  0  0  0
   -6.4860   12.5391   -9.8207 C   0  0  0  0  0  0  0  0  0  0  0  0
   -5.2943   11.8711  -10.2396 O   0  0  0  0  0  0  0  0  0  0  0  0
   -5.3056   10.5678  -11.1848 P   0  0  0  0  0  0  0  0  0  0  0  0
   -6.6202   10.5519  -12.0368 O   0  0  0  0  0  0  0  0  0  0  0  0
   -4.0645   10.6047  -12.1401 O   0  0  0  0  0  0  0  0  0  0  0  0
   -5.2430    9.2784  -10.2970 O   0  0  0  0  0  0  0  0  0  0  0  0
    1.8536   17.0503   -7.5560 H   0  0  0  0  0  0  0  0  0  0  0  0
    1.8536   17.0503   -7.5560 H   0  0  0  0  0  0  0  0  0  0  0  0
    1.8536   17.0503   -7.5560 H   0  0  0  0  0  0  0  0  0  0  0  0
    1.8536   17.0503   -7.5560 H   0  0  0  0  0  0  0  0  0  0  0  0
 10 11  1  0  0  0
 11 22  1  0  0  0
 11 12  1  0  0  0
 12 13  2  0  0  0
 13 14  1  0  0  0
 13 15  1  0  0  0
 15 23  1  0  0  0
 15 16  2  0  0  0
 16 17  1  0  0  0
 17  1  1  0  0  0
 17 18  1  0  0  0
  1  6  1  0  0  0
  1  2  1  0  0  0
  2  3  1  0  0  0
  3 27  1  0  0  0
  3  4  1  0  0  0
 27 28  1  0  0  0
 28 29  1  0  0  0
 29 30  1  0  0  0
 29 31  1  0  0  0
 29 32  1  0  0  0
  4  5  1  0  0  0
  4  6  1  0  0  0
  6  7  1  0  0  0
 18 23  2  0  0  0
 18 19  1  0  0  0
 19 20  2  0  0  0
 20 21  1  0  0  0
 21 22  2  0  0  0
 22 23  1  0  0  0
 12 24  1  0  0  0
 14 25  1  0  0  0
 14 26  1  0  0  0
 29 33  1  0  0  0
 30 34  1  0  0  0
 31 35  1  0  0  0
 32 36  1  0  0  0
  5  8  1  0  0  0
  7  9  1  0  0  0
M  CHG 1  12   1
M  END
> <minimizedAffinity>
-8.80870

$$$$
ZINC000096563771


 32 34  0  0  0  0  0  0  0  0999 V2000
   -9.7993   21.1548   -6.3624 C   0  0  0  0  0  0  0  0  0  0  0  0
   -9.1230   20.0461   -7.1271 C   0  0  0  0  0  0  0  0  0  0  0  0
   -8.7819   18.8660   -6.4702 C   0  0  0  0  0  0  0  0  0  0  0  0
   -9.0952   18.7172   -5.0036 C   0  0  0  0  0  0  0  0  0  0  0  0
   -8.1706   17.8445   -7.1310 C   0  0  0  0  0  0  0  0  0  0  0  0
   -7.8745   17.9742   -8.4990 C   0  0  0  0  0  0  0  0  0  0  0  0
   -7.2744   16.9791   -9.1632 N   0  0  0  0  0  0  0  0  0  0  0  0
   -6.9888   17.0790  -10.4422 C   0  0  0  0  0  0  0  0  0  0  0  0
   -7.3087   18.2531  -11.1692 C   0  0  0  0  0  0  0  0  0  0  0  0
   -7.9304   19.3139  -10.5347 C   0  0  0  0  0  0  0  0  0  0  0  0
   -8.2225   19.1771   -9.1652 C   0  0  0  0  0  0  0  0  0  0  0  0
   -8.8579   20.2081   -8.4529 C   0  0  0  0  0  0  0  0  0  0  0  0
   -6.9632   18.3069  -12.6014 C   0  0  0  0  0  0  0  0  0  0  0  0
   -7.2162   19.2914  -13.2682 O   0  0  0  0  0  0  0  0  0  0  0  0
   -6.3575   17.2325  -13.1527 N   0  0  0  0  0  0  0  0  0  0  0  0
   -6.0755   16.1428  -12.4226 C   0  0  0  0  0  0  0  0  0  0  0  0
   -5.5300   15.2044  -12.9699 O   0  0  0  0  0  0  0  0  0  0  0  0
   -6.3667   16.0396  -11.1159 N   0  0  0  0  0  0  0  0  0  0  0  0
   -9.1230   20.0488   -7.1229 H   0  0  0  0  0  0  0  0  0  0  0  0
   -6.0226   14.8128  -10.3929 C   0  0  0  0  0  0  0  0  0  0  0  0
   -7.2347   13.8795  -10.3665 C   0  0  0  0  0  0  0  0  0  0  0  0
   -7.4909   13.4694   -9.0218 O   0  0  0  0  0  0  0  0  0  0  0  0
   -8.9377   20.4295  -13.1635 H   0  0  0  0  0  0  0  0  0  0  0  0
   -6.9495   12.6486  -11.2294 C   0  0  0  0  0  0  0  0  0  0  0  0
   -7.7818   11.5669  -10.8062 O   0  0  0  0  0  0  0  0  0  0  0  0
  -10.7807   13.5550   -3.9675 H   0  0  0  0  0  0  0  0  0  0  0  0
   -5.4799   12.2501  -11.0797 C   0  0  0  0  0  0  0  0  0  0  0  0
   -4.8145   12.4033  -12.3351 O   0  0  0  0  0  0  0  0  0  0  0  0
   -8.8177   19.5933   -7.1653 H   0  0  0  0  0  0  0  0  0  0  0  0
   -5.3904   10.7906  -10.6298 C   0  0  0  0  0  0  0  0  0  0  0  0
   -5.1547    9.9557  -11.7653 O   0  0  0  0  0  0  0  0  0  0  0  0
   -0.0966   19.3088   -9.8217 H   0  0  0  0  0  0  0  0  0  0  0  0
  1  2  1  0  0  0
  2 12  2  0  0  0
  2  3  1  0  0  0
  3  4  1  0  0  0
  3  5  2  0  0  0
  5  6  1  0  0  0
  6 11  2  0  0  0
  6  7  1  0  0  0
  7  8  2  0  0  0
  8 18  1  0  0  0
  8  9  1  0  0  0
  9 10  2  0  0  0
  9 13  1  0  0  0
 10 11  1  0  0  0
 11 12  1  0  0  0
 13 14  2  0  0  0
 13 15  1  0  0  0
 15 16  1  0  0  0
 16 17  2  0  0  0
 16 18  1  0  0  0
 18 20  1  0  0  0
 20 21  1  0  0  0
 21 22  1  0  0  0
 21 24  1  0  0  0
 24 25  1  0  0  0
 24 27  1  0  0  0
 27 28  1  0  0  0
 27 30  1  0  0  0
 30 31  1  0  0  0
 15 19  1  0  0  0
 22 23  1  0  0  0
 25 26  1  0  0  0
 28 29  1  0  0  0
 31 32  1  0  0  0
M  END
> <minimizedAffinity>
-9.67365

$$$$
ZINC000018251033


 24 25  0  0  0  0  0  0  0  0999 V2000
   -5.9282   12.6661  -10.6555 N   0  0  0  0  0  0  0  0  0  0  0  0
   -9.4447    8.9767   -6.7732 H   0  0  0  0  0  0  0  0  0  0  0  0
   -6.2270   12.7985   -9.3226 C   0  0  0  0  0  0  0  0  0  0  0  0
   -6.1622   11.7611   -8.5330 N   0  0  0  0  0  0  0  0  0  0  0  0
   -5.9029   10.8966   -8.8883 H   0  0  0  0  0  0  0  0  0  0  0  0
   -7.3637   16.5859   -7.7651 C   0  0  0  0  0  0  0  0  0  0  0  0
   -6.0325   16.1907   -7.7236 C   0  0  0  0  0  0  0  0  0  0  0  0
   -5.6605   14.9634   -8.2278 C   0  0  0  0  0  0  0  0  0  0  0  0
   -6.6226   14.1173   -8.7806 C   0  0  0  0  0  0  0  0  0  0  0  0
   -7.9589   14.5174   -8.8207 C   0  0  0  0  0  0  0  0  0  0  0  0
   -8.3249   15.7437   -8.3096 C   0  0  0  0  0  0  0  0  0  0  0  0
   -8.9130   18.3875   -7.8012 C   0  0  0  0  0  0  0  0  0  0  0  0
   -7.7268   17.7958   -7.2674 O   0  0  0  0  0  0  0  0  0  0  0  0
   -5.2296   13.4966  -11.2084 O   0  0  0  0  0  0  0  0  0  0  0  0
   -5.7089   14.0425  -12.3322 C   0  0  0  0  0  0  0  0  0  0  0  0
   -5.4182   13.5671  -13.4091 O   0  0  0  0  0  0  0  0  0  0  0  0
   -6.6100   15.2483  -12.2594 C   0  0  0  0  0  0  0  0  0  0  0  0
   -5.8121   16.4515  -11.7530 C   0  0  0  0  0  0  0  0  0  0  0  0
   -6.5707   17.7190  -12.0513 C   0  0  0  0  0  0  0  0  0  0  0  0
   -7.3201   18.3254  -11.0606 C   0  0  0  0  0  0  0  0  0  0  0  0
   -8.0159   19.4881  -11.3344 C   0  0  0  0  0  0  0  0  0  0  0  0
   -7.9620   20.0445  -12.5985 C   0  0  0  0  0  0  0  0  0  0  0  0
   -7.2118   19.4386  -13.5890 C   0  0  0  0  0  0  0  0  0  0  0  0
   -6.5126   18.2783  -13.3142 C   0  0  0  0  0  0  0  0  0  0  0  0
 12 13  1  0  0  0
 13  6  1  0  0  0
  6 11  2  0  0  0
  6  7  1  0  0  0
  7  8  2  0  0  0
  8  9  1  0  0  0
  9  3  1  0  0  0
  9 10  2  0  0  0
  3  4  2  0  0  0
  3  1  1  0  0  0
  4  5  1  0  0  0
  1 14  1  0  0  0
 14 15  1  0  0  0
 15 16  2  0  0  0
 15 17  1  0  0  0
 17 18  1  0  0  0
 18 19  1  0  0  0
 19 24  1  0  0  0
 19 20  2  0  0  0
 20 21  1  0  0  0
 21 22  2  0  0  0
 22 23  1  0  0  0
 23 24  2  0  0  0
 10 11  1  0  0  0
  1  2  1  0  0  0
M  END
> <minimizedAffinity>
-7.45995

$$$$
ZINC000020637805


 27 30  0  0  0  0  0  0  0  0999 V2000
   -6.8480   16.3682   -7.8872 C   0  0  0  0  0  0  0  0  0  0  0  0
   -7.6867   17.3354   -7.3572 C   0  0  0  0  0  0  0  0  0  0  0  0
   -8.0353   17.2676   -6.0510 O   0  0  0  0  0  0  0  0  0  0  0  0
   -8.1559   18.3301   -8.1067 N   0  0  0  0  0  0  0  0  0  0  0  0
   -7.8883   18.5036   -9.3883 C   0  0  0  0  0  0  0  0  0  0  0  0
   -8.3083   19.4782  -10.2536 N   0  0  0  0  0  0  0  0  0  0  0  0
   -7.7532   19.2280  -11.5038 C   0  0  0  0  0  0  0  0  0  0  0  0
   -7.8394   19.8812  -12.7251 C   0  0  0  0  0  0  0  0  0  0  0  0
   -7.1593   19.3860  -13.8202 C   0  0  0  0  0  0  0  0  0  0  0  0
   -6.3918   18.2400  -13.7055 C   0  0  0  0  0  0  0  0  0  0  0  0
   -6.2993   17.5824  -12.4947 C   0  0  0  0  0  0  0  0  0  0  0  0
   -6.9784   18.0720  -11.3881 C   0  0  0  0  0  0  0  0  0  0  0  0
   -7.0788   17.6439  -10.0704 N   0  0  0  0  0  0  0  0  0  0  0  0
   -6.4877   16.5019   -9.3554 C   0  0  0  0  0  0  0  0  0  0  0  0
   -6.3442   15.2984   -7.0868 H   0  0  0  0  0  0  0  0  0  0  0  0
   -6.3442   15.2984   -7.0868 H   0  0  0  0  0  0  0  0  0  0  0  0
   -6.9193   15.2380  -10.0533 C   0  0  0  0  0  0  0  0  0  0  0  0
   -8.2637   14.9727  -10.2336 C   0  0  0  0  0  0  0  0  0  0  0  0
   -8.6598   13.8130  -10.8737 C   0  0  0  0  0  0  0  0  0  0  0  0
   -7.7112   12.9193  -11.3339 C   0  0  0  0  0  0  0  0  0  0  0  0
   -6.3664   13.1850  -11.1544 C   0  0  0  0  0  0  0  0  0  0  0  0
   -5.9704   14.3464  -10.5182 C   0  0  0  0  0  0  0  0  0  0  0  0
   -5.3506   12.2275  -11.6468 N   0  0  0  0  0  0  0  0  0  0  0  0
   -5.5236   11.0302  -11.5060 O   0  0  0  0  0  0  0  0  0  0  0  0
   -4.3418   12.6371  -12.1927 O   0  0  0  0  0  0  0  0  0  0  0  0
   -5.9373   14.4451   -6.4496 N   0  0  0  0  0  0  0  0  0  0  0  0
   -6.3402   15.2957   -7.0856 C   0  0  0  0  0  0  0  0  0  0  0  0
 26 27  3  0  0  0
 27  1  1  0  0  0
  1 14  1  0  0  0
  1  2  2  0  0  0
  2  3  1  0  0  0
  2  4  1  0  0  0
  4  5  2  0  0  0
  5 13  1  0  0  0
  5  6  1  0  0  0
  6  7  1  0  0  0
  7 12  2  0  0  0
  7  8  1  0  0  0
  8  9  2  0  0  0
  9 10  1  0  0  0
 10 11  2  0  0  0
 11 12  1  0  0  0
 12 13  1  0  0  0
 13 14  1  0  0  0
 14 17  1  0  0  0
 17 22  1  0  0  0
 17 18  2  0  0  0
 18 19  1  0  0  0
 19 20  2  0  0  0
 20 21  1  0  0  0
 21 23  1  0  0  0
 21 22  2  0  0  0
 23 24  1  0  0  0
 23 25  2  0  0  0
  3 15  1  0  0  0
  6 16  1  0  0  0
M  CHG 1  23   1
M  CHG 1  24  -1
M  END
> <minimizedAffinity>
-9.43880

$$$$
ZINC000239807507


 24 26  0  0  0  0  0  0  0  0999 V2000
   -7.6990   17.1778   -7.4715 S   0  0  0  0  0  0  0  0  0  0  0  0
   -8.2250   17.8713   -6.3482 O   0  0  0  0  0  0  0  0  0  0  0  0
   -6.3519   16.7319   -7.5486 O   0  0  0  0  0  0  0  0  0  0  0  0
   -7.9580   18.2220   -8.8669 C   0  0  0  0  0  0  0  0  0  0  0  0
   -8.8272   19.2891   -8.7749 C   0  0  0  0  0  0  0  0  0  0  0  0
   -9.0382   20.1144   -9.8641 C   0  0  0  0  0  0  0  0  0  0  0  0
   -8.3765   19.8651  -11.0532 C   0  0  0  0  0  0  0  0  0  0  0  0
   -7.5102   18.7984  -11.1482 C   0  0  0  0  0  0  0  0  0  0  0  0
   -7.2800   17.9703  -10.0573 C   0  0  0  0  0  0  0  0  0  0  0  0
   -6.3773   16.9969  -10.3591 O   0  0  0  0  0  0  0  0  0  0  0  0
   -6.2930   16.8558  -11.7875 C   0  0  0  0  0  0  0  0  0  0  0  0
   -4.8699   16.4890  -12.2129 C   0  0  0  0  0  0  0  0  0  0  0  0
   -7.2927   15.8119  -12.2890 C   0  0  0  0  0  0  0  0  0  0  0  0
   -6.6654   18.2717  -12.2921 C   0  0  0  0  0  0  0  0  0  0  0  0
   -8.6482   15.8369   -7.6796 N   0  0  0  0  0  0  0  0  0  0  0  0
   -8.4178   11.6172  -10.2611 H   0  0  0  0  0  0  0  0  0  0  0  0
   -7.0494   13.2833   -9.5178 C   0  0  0  0  0  0  0  0  0  0  0  0
   -8.2444   13.3262  -10.0353 N   0  0  0  0  0  0  0  0  0  0  0  0
   -8.9463   14.2294   -9.4491 N   0  0  0  0  0  0  0  0  0  0  0  0
   -8.2308   14.8160   -8.5187 C   0  0  0  0  0  0  0  0  0  0  0  0
   -7.0000   14.2268   -8.5294 N   0  0  0  0  0  0  0  0  0  0  0  0
   -5.9334   12.3572   -9.9256 H   0  0  0  0  0  0  0  0  0  0  0  0
   -5.2844   12.8829  -11.2130 C   0  0  0  0  0  0  0  0  0  0  0  0
   -5.9309   12.3606   -9.9284 C   0  0  0  0  0  0  0  0  0  0  0  0
 23 24  1  0  0  0
 24 17  1  0  0  0
 17 21  1  0  0  0
 17 18  2  0  0  0
 18 19  1  0  0  0
 19 20  2  0  0  0
 20 15  1  0  0  0
 20 21  1  0  0  0
 15  1  1  0  0  0
  1  2  2  0  0  0
  1  3  2  0  0  0
  1  4  1  0  0  0
  4  9  1  0  0  0
  4  5  2  0  0  0
  5  6  1  0  0  0
  6  7  2  0  0  0
  7  8  1  0  0  0
  8 14  1  0  0  0
  8  9  2  0  0  0
  9 10  1  0  0  0
 10 11  1  0  0  0
 11 12  1  0  0  0
 11 13  1  0  0  0
 11 14  1  0  0  0
 15 16  1  0  0  0
 21 22  1  0  0  0
M  END
> <minimizedAffinity>
-8.25870

$$$$
ZINC000009580789


 28 30  0  0  0  0  0  0  0  0999 V2000
   -8.4470   14.9889   -6.0175 N   0  0  0  0  0  0  0  0  0  0  0  0
   -8.5633   16.0709   -6.7688 C   0  0  0  0  0  0  0  0  0  0  0  0
   -9.2746   17.6340   -6.2653 S   0  0  0  0  0  0  0  0  0  0  0  0
   -8.4501   18.5129   -7.6036 C   0  0  0  0  0  0  0  0  0  0  0  0
   -9.0413   19.7751   -8.1785 C   0  0  0  0  0  0  0  0  0  0  0  0
   -8.1969   19.8030   -9.8223 S   0  0  0  0  0  0  0  0  0  0  0  0
   -9.1318   20.1713  -10.8272 O   0  0  0  0  0  0  0  0  0  0  0  0
   -6.9657   20.5033   -9.7089 O   0  0  0  0  0  0  0  0  0  0  0  0
   -7.8693   17.9939   -9.9248 C   0  0  0  0  0  0  0  0  0  0  0  0
   -8.6195   17.4195   -8.7216 C   0  0  0  0  0  0  0  0  0  0  0  0
   -8.1504   16.2000   -8.0860 N   0  0  0  0  0  0  0  0  0  0  0  0
   -7.3756   15.2400   -8.7458 C   0  0  0  0  0  0  0  0  0  0  0  0
   -7.9362   14.4654   -9.7523 C   0  0  0  0  0  0  0  0  0  0  0  0
   -7.1686   13.5182  -10.4021 C   0  0  0  0  0  0  0  0  0  0  0  0
   -5.8429   13.3410  -10.0516 C   0  0  0  0  0  0  0  0  0  0  0  0
   -5.2805   14.1106   -9.0495 C   0  0  0  0  0  0  0  0  0  0  0  0
   -6.0409   15.0634   -8.3991 C   0  0  0  0  0  0  0  0  0  0  0  0
   -5.3346   16.0295   -7.1416 Cl  0  0  0  0  0  0  0  0  0  0  0  0
   -7.7768   12.6773  -11.4947 C   0  0  0  0  0  0  0  0  0  0  0  0
   -6.9806   12.7567  -12.6424 F   0  0  0  0  0  0  0  0  0  0  0  0
   -7.8528   11.3461  -11.0711 F   0  0  0  0  0  0  0  0  0  0  0  0
   -9.0617   13.1483  -11.7851 F   0  0  0  0  0  0  0  0  0  0  0  0
   -8.2108   14.6435   -3.6968 C   0  0  0  0  0  0  0  0  0  0  0  0
   -8.9906   14.9623   -4.7904 C   0  0  0  0  0  0  0  0  0  0  0  0
  -10.3033   15.2479   -4.6253 O   0  0  0  0  0  0  0  0  0  0  0  0
  -10.8375   15.4740   -3.2901 H   0  0  0  0  0  0  0  0  0  0  0  0
   -9.1999   14.7802   -1.3308 N   0  0  0  0  0  0  0  0  0  0  0  0
   -8.7623   14.7197   -2.3774 C   0  0  0  0  0  0  0  0  0  0  0  0
 27 28  3  0  0  0
 28 23  1  0  0  0
 23 24  2  0  0  0
 24 25  1  0  0  0
 24  1  1  0  0  0
  1  2  2  0  0  0
  2 11  1  0  0  0
  2  3  1  0  0  0
  3  4  1  0  0  0
  4 10  1  0  0  0
  4  5  1  0  0  0
  5  6  1  0  0  0
  6  7  2  0  0  0
  6  8  2  0  0  0
  6  9  1  0  0  0
  9 10  1  0  0  0
 10 11  1  0  0  0
 11 12  1  0  0  0
 12 17  1  0  0  0
 12 13  2  0  0  0
 13 14  1  0  0  0
 14 19  1  0  0  0
 14 15  2  0  0  0
 19 20  1  0  0  0
 19 21  1  0  0  0
 19 22  1  0  0  0
 15 16  1  0  0  0
 16 17  2  0  0  0
 17 18  1  0  0  0
 25 26  1  0  0  0
M  END
> <minimizedAffinity>
-6.91713

$$$$
ZINC000005224227


 34 37  0  0  0  0  0  0  0  0999 V2000
   -7.2836   16.7008  -10.7345 C   0  0  0  0  0  0  0  0  0  0  0  0
   -7.2779   17.9497  -11.1248 N   0  0  0  0  0  0  0  0  0  0  0  0
   -7.8764   18.7183  -10.1767 C   0  0  0  0  0  0  0  0  0  0  0  0
   -8.2715   17.8690   -9.1392 C   0  0  0  0  0  0  0  0  0  0  0  0
   -8.8925   18.3758   -8.0673 N   0  0  0  0  0  0  0  0  0  0  0  0
   -9.1392   19.6630   -7.9708 C   0  0  0  0  0  0  0  0  0  0  0  0
   -9.7790   20.1378   -6.8523 N   0  0  0  0  0  0  0  0  0  0  0  0
   -8.7777   20.5401   -8.9496 N   0  0  0  0  0  0  0  0  0  0  0  0
   -8.1471   20.1001  -10.0608 C   0  0  0  0  0  0  0  0  0  0  0  0
   -7.8192   20.8771  -10.9420 O   0  0  0  0  0  0  0  0  0  0  0  0
   -7.8934   16.6037   -9.5132 N   0  0  0  0  0  0  0  0  0  0  0  0
   -4.3191   14.0117  -11.9459 H   0  0  0  0  0  0  0  0  0  0  0  0
   -4.3191   14.0117  -11.9459 H   0  0  0  0  0  0  0  0  0  0  0  0
   -4.3191   14.0117  -11.9459 H   0  0  0  0  0  0  0  0  0  0  0  0
   -8.0981   15.3749   -8.7423 C   0  0  0  0  0  0  0  0  0  0  0  0
   -9.2199   15.5251   -7.8451 O   0  0  0  0  0  0  0  0  0  0  0  0
   -8.7167   16.2965   -6.7326 C   0  0  0  0  0  0  0  0  0  0  0  0
   -7.3038   15.7311   -6.4673 C   0  0  0  0  0  0  0  0  0  0  0  0
   -7.3481   14.7313   -5.4472 O   0  0  0  0  0  0  0  0  0  0  0  0
   -6.8861   15.1093   -7.8219 C   0  0  0  0  0  0  0  0  0  0  0  0
   -5.7162   15.7540   -8.3294 O   0  0  0  0  0  0  0  0  0  0  0  0
   -3.5423   14.5048  -10.9536 H   0  0  0  0  0  0  0  0  0  0  0  0
   -3.5423   14.5048  -10.9536 H   0  0  0  0  0  0  0  0  0  0  0  0
   -9.6090   16.1049   -5.5047 C   0  0  0  0  0  0  0  0  0  0  0  0
  -10.8720   16.7339   -5.7308 O   0  0  0  0  0  0  0  0  0  0  0  0
   -3.6461   14.4208  -11.0421 H   0  0  0  0  0  0  0  0  0  0  0  0
   -5.1440   11.7880  -11.6994 C   0  0  0  0  0  0  0  0  0  0  0  0
   -5.6590   13.1304  -12.0005 N   0  0  0  0  0  0  0  0  0  0  0  0
   -4.8499   14.1326  -11.2954 C   0  0  0  0  0  0  0  0  0  0  0  0
   -5.3128   15.5366  -11.6982 C   0  0  0  0  0  0  0  0  0  0  0  0
   -6.7591   15.6400  -11.4497 N   0  0  0  0  0  0  0  0  0  0  0  0
   -7.6315   14.5830  -11.9843 C   0  0  0  0  0  0  0  0  0  0  0  0
   -7.0585   13.2247  -11.5661 C   0  0  0  0  0  0  0  0  0  0  0  0
   -5.8617   14.7244  -14.1344 H   0  0  0  0  0  0  0  0  0  0  0  0
 27 28  1  0  0  0
 28 33  1  0  0  0
 28 29  1  0  0  0
 29 30  1  0  0  0
 30 31  1  0  0  0
 31  1  1  0  0  0
 31 32  1  0  0  0
  1 11  1  0  0  0
  1  2  2  0  0  0
  2  3  1  0  0  0
  3  9  1  0  0  0
  3  4  2  0  0  0
  4  5  1  0  0  0
  4 11  1  0  0  0
  5  6  2  0  0  0
  6  7  1  0  0  0
  6  8  1  0  0  0
  8  9  1  0  0  0
  9 10  2  0  0  0
 11 15  1  0  0  0
 15 20  1  0  0  0
 15 16  1  0  0  0
 16 17  1  0  0  0
 17 24  1  0  0  0
 17 18  1  0  0  0
 24 25  1  0  0  0
 18 19  1  0  0  0
 18 20  1  0  0  0
 20 21  1  0  0  0
 32 33  1  0  0  0
 28 34  1  0  0  0
  7 12  1  0  0  0
  7 13  1  0  0  0
  8 14  1  0  0  0
 25 26  1  0  0  0
 19 22  1  0  0  0
 21 23  1  0  0  0
M  CHG 1  28   1
M  END
> <minimizedAffinity>
-7.81866

$$$$
ZINC000008655925


 30 31  0  0  0  0  0  0  0  0999 V2000
   -6.4395   16.4725  -10.3302 N   0  0  0  0  0  0  0  0  0  0  0  0
  -10.8867   18.4797   -9.1582 H   0  0  0  0  0  0  0  0  0  0  0  0
   -7.0760   15.1633  -10.1665 C   0  0  0  0  0  0  0  0  0  0  0  0
   -7.5870   14.7210  -11.4257 O   0  0  0  0  0  0  0  0  0  0  0  0
   -8.2544   13.4584  -11.3735 C   0  0  0  0  0  0  0  0  0  0  0  0
   -7.2706   12.3816  -10.9086 C   0  0  0  0  0  0  0  0  0  0  0  0
   -6.2059   12.2669  -11.8548 O   0  0  0  0  0  0  0  0  0  0  0  0
   -6.7023   12.7759   -9.5419 C   0  0  0  0  0  0  0  0  0  0  0  0
   -5.7297   11.8123   -9.1325 O   0  0  0  0  0  0  0  0  0  0  0  0
   -6.0450   14.1549   -9.6528 C   0  0  0  0  0  0  0  0  0  0  0  0
   -4.9461   14.0882  -10.5639 O   0  0  0  0  0  0  0  0  0  0  0  0
  -10.6629   18.4553   -8.4831 H   0  0  0  0  0  0  0  0  0  0  0  0
  -10.6629   18.4553   -8.4831 H   0  0  0  0  0  0  0  0  0  0  0  0
  -10.6629   18.4553   -8.4831 H   0  0  0  0  0  0  0  0  0  0  0  0
   -8.7814   13.1021  -12.7650 C   0  0  0  0  0  0  0  0  0  0  0  0
   -9.6792   14.1209  -13.2097 O   0  0  0  0  0  0  0  0  0  0  0  0
  -10.2326   18.7692   -8.7264 H   0  0  0  0  0  0  0  0  0  0  0  0
   -8.4049   18.9878   -8.7234 C   0  0  0  0  0  0  0  0  0  0  0  0
   -7.7021   17.8949   -8.9329 N   0  0  0  0  0  0  0  0  0  0  0  0
   -7.1748   17.6292  -10.1341 C   0  0  0  0  0  0  0  0  0  0  0  0
   -7.3690   18.5191  -11.1836 C   0  0  0  0  0  0  0  0  0  0  0  0
   -6.8223   18.2586  -12.4588 N   0  0  0  0  0  0  0  0  0  0  0  0
   -8.1187   19.6802  -10.9510 C   0  0  0  0  0  0  0  0  0  0  0  0
   -8.3109   20.4863  -11.8487 O   0  0  0  0  0  0  0  0  0  0  0  0
   -8.6292   19.8894   -9.7194 N   0  0  0  0  0  0  0  0  0  0  0  0
   -9.0765   19.2845   -7.1179 H   0  0  0  0  0  0  0  0  0  0  0  0
   -9.0765   19.2845   -7.1179 H   0  0  0  0  0  0  0  0  0  0  0  0
   -9.0765   19.2845   -7.1179 H   0  0  0  0  0  0  0  0  0  0  0  0
   -8.5954   17.7545   -6.2880 C   0  0  0  0  0  0  0  0  0  0  0  0
   -9.0760   19.2874   -7.1220 S   0  0  0  0  0  0  0  0  0  0  0  0
 29 30  1  0  0  0
 30 18  1  0  0  0
 18 25  1  0  0  0
 18 19  2  0  0  0
 19 20  1  0  0  0
 20  1  1  0  0  0
 20 21  2  0  0  0
  1  3  1  0  0  0
  3 10  1  0  0  0
  3  4  1  0  0  0
  4  5  1  0  0  0
  5 15  1  0  0  0
  5  6  1  0  0  0
 15 16  1  0  0  0
  6  7  1  0  0  0
  6  8  1  0  0  0
  8  9  1  0  0  0
  8 10  1  0  0  0
 10 11  1  0  0  0
 21 22  1  0  0  0
 21 23  1  0  0  0
 23 24  2  0  0  0
 23 25  1  0  0  0
  1  2  1  0  0  0
 16 17  1  0  0  0
  7 12  1  0  0  0
  9 13  1  0  0  0
 11 14  1  0  0  0
 22 26  1  0  0  0
 22 27  1  0  0  0
 25 28  1  0  0  0
M  END
> <minimizedAffinity>
-7.07469

$$$$
ZINC000004782900


 34 37  0  0  0  0  0  0  0  0999 V2000
   -6.2815   15.6866   -9.5768 C   0  0  0  0  0  0  0  0  0  0  0  0
   -6.4233   16.4824  -10.8482 C   0  0  0  0  0  0  0  0  0  0  0  0
   -6.8315   17.8056  -10.7386 C   0  0  0  0  0  0  0  0  0  0  0  0
   -6.9764   18.5935  -11.8653 C   0  0  0  0  0  0  0  0  0  0  0  0
   -6.7092   18.0533  -13.1210 C   0  0  0  0  0  0  0  0  0  0  0  0
   -6.3048   16.7353  -13.2251 C   0  0  0  0  0  0  0  0  0  0  0  0
   -6.1640   15.9467  -12.0902 C   0  0  0  0  0  0  0  0  0  0  0  0
   -5.7351   14.5152  -12.2819 C   0  0  0  0  0  0  0  0  0  0  0  0
   -6.8507   13.7459  -12.7356 O   0  0  0  0  0  0  0  0  0  0  0  0
   -5.2199   13.9282  -10.9696 C   0  0  0  0  0  0  0  0  0  0  0  0
   -6.2663   14.1899   -9.8797 C   0  0  0  0  0  0  0  0  0  0  0  0
   -6.9204   19.0172  -14.0643 O   0  0  0  0  0  0  0  0  0  0  0  0
   -7.7124   20.0270  -13.4113 C   0  0  0  0  0  0  0  0  0  0  0  0
   -7.3570   19.8950  -12.0223 O   0  0  0  0  0  0  0  0  0  0  0  0
   -7.8753   19.1990   -7.5117 H   0  0  0  0  0  0  0  0  0  0  0  0
   -8.8597   15.3852   -6.8299 C   0  0  0  0  0  0  0  0  0  0  0  0
   -7.7944   15.1030   -7.6715 C   0  0  0  0  0  0  0  0  0  0  0  0
   -7.4400   15.9973   -8.6643 C   0  0  0  0  0  0  0  0  0  0  0  0
   -8.1455   17.1754   -8.8227 C   0  0  0  0  0  0  0  0  0  0  0  0
   -9.2121   17.4649   -7.9851 C   0  0  0  0  0  0  0  0  0  0  0  0
   -9.5749   16.5660   -6.9892 C   0  0  0  0  0  0  0  0  0  0  0  0
   -8.5614   14.6512   -4.5875 C   0  0  0  0  0  0  0  0  0  0  0  0
   -9.2076   14.5047   -5.8534 O   0  0  0  0  0  0  0  0  0  0  0  0
   -9.9055   18.6242   -8.1417 O   0  0  0  0  0  0  0  0  0  0  0  0
   -9.1678   19.7674   -8.5785 C   0  0  0  0  0  0  0  0  0  0  0  0
  -10.6211   16.8465   -6.1652 O   0  0  0  0  0  0  0  0  0  0  0  0
  -10.3611   17.7119   -5.0581 C   0  0  0  0  0  0  0  0  0  0  0  0
   -7.6248   13.7542  -10.3653 C   0  0  0  0  0  0  0  0  0  0  0  0
   -7.9642   12.5879  -10.2612 O   0  0  0  0  0  0  0  0  0  0  0  0
   -8.3846   14.5682  -10.8621 O   0  0  0  0  0  0  0  0  0  0  0  0
   -8.0128   18.5876   -6.5786 H   0  0  0  0  0  0  0  0  0  0  0  0
   -5.0058   12.4215  -11.1282 C   0  0  0  0  0  0  0  0  0  0  0  0
   -4.1377   12.1779  -12.2369 O   0  0  0  0  0  0  0  0  0  0  0  0
   -7.3544   19.2434   -7.2303 H   0  0  0  0  0  0  0  0  0  0  0  0
 22 23  1  0  0  0
 23 16  1  0  0  0
 16 21  2  0  0  0
 16 17  1  0  0  0
 17 18  2  0  0  0
 18  1  1  0  0  0
 18 19  1  0  0  0
  1 11  1  0  0  0
  1  2  1  0  0  0
  2  7  1  0  0  0
  2  3  2  0  0  0
  3  4  1  0  0  0
  4 14  1  0  0  0
  4  5  2  0  0  0
  5  6  1  0  0  0
  5 12  1  0  0  0
  6  7  2  0  0  0
  7  8  1  0  0  0
  8  9  1  0  0  0
  8 10  1  0  0  0
 10 32  1  0  0  0
 10 11  1  0  0  0
 32 33  1  0  0  0
 11 28  1  0  0  0
 28 29  2  0  0  0
 28 30  1  0  0  0
 12 13  1  0  0  0
 13 14  1  0  0  0
 19 20  2  0  0  0
 20 24  1  0  0  0
 20 21  1  0  0  0
 24 25  1  0  0  0
 21 26  1  0  0  0
 26 27  1  0  0  0
  9 15  1  0  0  0
 33 34  1  0  0  0
 30 31  1  0  0  0
M  END
> <minimizedAffinity>
-8.72153

$$$$
CHEMBL3357449_8.51


 38 40  0  0  0  0  0  0  0  0999 V2000
   -7.4825   18.1212  -10.9384 C   0  0  0  0  0  0  0  0  0  0  0  0
   -8.0717   18.6913   -9.8607 N   0  0  0  0  0  0  0  0  0  0  0  0
   -8.5072   19.9588   -9.9539 C   0  0  0  0  0  0  0  0  0  0  0  0
   -8.3979   20.6973  -11.0690 N   0  0  0  0  0  0  0  0  0  0  0  0
   -7.8472   20.0993  -12.1435 C   0  0  0  0  0  0  0  0  0  0  0  0
   -7.3633   18.8127  -12.1366 C   0  0  0  0  0  0  0  0  0  0  0  0
   -6.6547   18.1465  -13.5530 Cl  0  0  0  0  0  0  0  0  0  0  0  0
   -7.0139   16.7880  -10.8560 N   0  0  0  0  0  0  0  0  0  0  0  0
   -8.4257   29.2665  -11.4519 H   0  0  0  0  0  0  0  0  0  0  0  0
   -5.7997   14.8326   -9.9396 C   0  0  0  0  0  0  0  0  0  0  0  0
   -5.1919   14.1850   -8.8463 C   0  0  0  0  0  0  0  0  0  0  0  0
   -5.0671   14.8363   -7.6242 C   0  0  0  0  0  0  0  0  0  0  0  0
   -5.5728   16.1191   -7.4852 C   0  0  0  0  0  0  0  0  0  0  0  0
   -6.2043   16.7468   -8.5615 C   0  0  0  0  0  0  0  0  0  0  0  0
   -6.3458   16.1234   -9.8122 C   0  0  0  0  0  0  0  0  0  0  0  0
   -5.9246   13.8949  -11.4521 S   0  0  0  0  0  0  0  0  0  0  0  0
   -5.0613   12.7327  -11.3071 O   0  0  0  0  0  0  0  0  0  0  0  0
   -5.7086   14.8230  -12.5478 O   0  0  0  0  0  0  0  0  0  0  0  0
   -8.4378   13.9679  -12.6316 C   0  0  0  0  0  0  0  0  0  0  0  0
   -7.6183   13.2985  -11.5345 C   0  0  0  0  0  0  0  0  0  0  0  0
   -7.6097   11.7833  -11.7496 C   0  0  0  0  0  0  0  0  0  0  0  0
   -9.0124   20.6341   -8.8483 N   0  0  0  0  0  0  0  0  0  0  0  0
  -13.5391   27.5282   -9.9317 H   0  0  0  0  0  0  0  0  0  0  0  0
   -9.1422   20.2704   -7.5010 C   0  0  0  0  0  0  0  0  0  0  0  0
   -9.5456   21.2590   -6.5920 C   0  0  0  0  0  0  0  0  0  0  0  0
   -9.6680   20.9788   -5.2335 C   0  0  0  0  0  0  0  0  0  0  0  0
   -9.4068   19.6929   -4.7683 C   0  0  0  0  0  0  0  0  0  0  0  0
   -9.0262   18.6776   -5.6547 C   0  0  0  0  0  0  0  0  0  0  0  0
   -8.8697   18.9826   -7.0131 C   0  0  0  0  0  0  0  0  0  0  0  0
   -8.8418   17.3962   -5.0928 N   0  0  0  0  0  0  0  0  0  0  0  0
   -9.8087   16.4627   -4.7581 C   0  0  0  0  0  0  0  0  0  0  0  0
  -11.0192   16.5822   -4.8962 O   0  0  0  0  0  0  0  0  0  0  0  0
  -11.5071   29.0716   -4.8803 H   0  0  0  0  0  0  0  0  0  0  0  0
   -9.1767   15.2104   -4.1702 C   0  0  0  0  0  0  0  0  0  0  0  0
  -10.2055   14.3072   -3.5015 C   0  0  0  0  0  0  0  0  0  0  0  0
  -10.3449   13.0553   -4.2482 N   0  0  0  0  0  0  0  0  0  0  0  0
   -1.1492   24.6620    2.4851 H   0  0  0  0  0  0  0  0  0  0  0  0
   -1.1492   24.6620    2.4851 H   0  0  0  0  0  0  0  0  0  0  0  0
 19 20  1  0  0  0
 20 16  1  0  0  0
 20 21  1  0  0  0
 16 10  1  0  0  0
 16 18  2  0  0  0
 16 17  2  0  0  0
 10 11  2  0  0  0
 10 15  1  0  0  0
 11 12  1  0  0  0
 12 13  2  0  0  0
 13 14  1  0  0  0
 14 15  2  0  0  0
 15  8  1  0  0  0
  8  1  1  0  0  0
  1  6  1  0  0  0
  1  2  2  0  0  0
  2  3  1  0  0  0
  3  4  2  0  0  0
  3 22  1  0  0  0
 22 24  1  0  0  0
 24 25  2  0  0  0
 24 29  1  0  0  0
 25 26  1  0  0  0
 26 27  2  0  0  0
 27 28  1  0  0  0
 28 29  2  0  0  0
 28 30  1  0  0  0
 30 31  1  0  0  0
 31 34  1  0  0  0
 31 32  2  0  0  0
 34 35  1  0  0  0
 35 36  1  0  0  0
  4  5  1  0  0  0
  5  6  2  0  0  0
  6  7  1  0  0  0
  8  9  1  0  0  0
 22 23  1  0  0  0
 30 33  1  0  0  0
 36 37  1  0  0  0
 36 38  1  0  0  0
M  END
> <minimizedAffinity>
-9.05535

$$$$
ZINC000035188411


 38 41  0  0  0  0  0  0  0  0999 V2000
   -7.0999   17.2188   -9.9912 C   0  0  0  0  0  0  0  0  0  0  0  0
   -7.5732   18.4111  -10.2585 N   0  0  0  0  0  0  0  0  0  0  0  0
   -7.4072   18.6726  -11.5777 C   0  0  0  0  0  0  0  0  0  0  0  0
   -6.7887   17.5586  -12.1514 C   0  0  0  0  0  0  0  0  0  0  0  0
   -6.5085   17.5586  -13.4618 N   0  0  0  0  0  0  0  0  0  0  0  0
   -6.8022   18.5807  -14.2162 C   0  0  0  0  0  0  0  0  0  0  0  0
   -7.4030   19.6932  -13.7230 N   0  0  0  0  0  0  0  0  0  0  0  0
   -7.7191   19.7746  -12.4114 C   0  0  0  0  0  0  0  0  0  0  0  0
   -8.2595   20.7694  -11.9582 O   0  0  0  0  0  0  0  0  0  0  0  0
   -6.5994   16.6578  -11.1342 N   0  0  0  0  0  0  0  0  0  0  0  0
  -10.3629   20.7571   -2.3177 H   0  0  0  0  0  0  0  0  0  0  0  0
   -5.9825   15.3343  -11.2521 C   0  0  0  0  0  0  0  0  0  0  0  0
   -5.8225   14.7363   -9.9472 O   0  0  0  0  0  0  0  0  0  0  0  0
   -5.6936   13.3187  -10.1916 C   0  0  0  0  0  0  0  0  0  0  0  0
   -6.7236   13.0145  -11.3020 C   0  0  0  0  0  0  0  0  0  0  0  0
   -7.9547   12.5638  -10.7333 O   0  0  0  0  0  0  0  0  0  0  0  0
   -6.9167   14.3719  -12.0183 C   0  0  0  0  0  0  0  0  0  0  0  0
   -8.2751   14.8034  -11.9157 O   0  0  0  0  0  0  0  0  0  0  0  0
  -14.5865   19.0146   -4.8613 H   0  0  0  0  0  0  0  0  0  0  0  0
  -14.5865   19.0146   -4.8613 H   0  0  0  0  0  0  0  0  0  0  0  0
   -6.0239   12.5276   -8.9244 C   0  0  0  0  0  0  0  0  0  0  0  0
   -6.3482   13.4338   -7.8681 O   0  0  0  0  0  0  0  0  0  0  0  0
  -16.5876    8.9496  -11.6658 H   0  0  0  0  0  0  0  0  0  0  0  0
   -7.1007   16.6222   -8.7454 N   0  0  0  0  0  0  0  0  0  0  0  0
  -10.3538   20.7611   -2.3158 H   0  0  0  0  0  0  0  0  0  0  0  0
   -8.7795   16.9212   -7.1456 C   0  0  0  0  0  0  0  0  0  0  0  0
   -7.6424   17.2992   -7.6448 N   0  0  0  0  0  0  0  0  0  0  0  0
  -10.4167   18.9771   -3.8074 C   0  0  0  0  0  0  0  0  0  0  0  0
   -9.1636   19.3249   -4.2889 C   0  0  0  0  0  0  0  0  0  0  0  0
   -8.6286   18.6599   -5.3727 C   0  0  0  0  0  0  0  0  0  0  0  0
   -9.3495   17.6336   -5.9875 C   0  0  0  0  0  0  0  0  0  0  0  0
  -10.6124   17.2834   -5.5018 C   0  0  0  0  0  0  0  0  0  0  0  0
  -11.1392   17.9505   -4.4121 C   0  0  0  0  0  0  0  0  0  0  0  0
  -12.3676   17.6122   -3.9366 O   0  0  0  0  0  0  0  0  0  0  0  0
  -10.1456   20.6813   -2.1641 H   0  0  0  0  0  0  0  0  0  0  0  0
  -10.9393   19.6358   -2.7389 O   0  0  0  0  0  0  0  0  0  0  0  0
  -11.6609   18.6676   -0.6455 C   0  0  0  0  0  0  0  0  0  0  0  0
  -10.4858   19.2349   -1.4445 C   0  0  0  0  0  0  0  0  0  0  0  0
 37 38  1  0  0  0
 38 36  1  0  0  0
 36 28  1  0  0  0
 28 33  2  0  0  0
 28 29  1  0  0  0
 29 30  2  0  0  0
 30 31  1  0  0  0
 31 26  1  0  0  0
 31 32  2  0  0  0
 26 27  2  0  0  0
 27 24  1  0  0  0
 24  1  1  0  0  0
  1 10  1  0  0  0
  1  2  2  0  0  0
  2  3  1  0  0  0
  3  8  1  0  0  0
  3  4  2  0  0  0
  4  5  1  0  0  0
  4 10  1  0  0  0
  5  6  2  0  0  0
  6  7  1  0  0  0
  7  8  1  0  0  0
  8  9  2  0  0  0
 10 12  1  0  0  0
 12 17  1  0  0  0
 12 13  1  0  0  0
 13 14  1  0  0  0
 14 21  1  0  0  0
 14 15  1  0  0  0
 21 22  1  0  0  0
 15 16  1  0  0  0
 15 17  1  0  0  0
 17 18  1  0  0  0
 32 33  1  0  0  0
 33 34  1  0  0  0
 24 25  1  0  0  0
  7 11  1  0  0  0
 22 23  1  0  0  0
 16 19  1  0  0  0
 18 20  1  0  0  0
 34 35  1  0  0  0
M  END
> <minimizedAffinity>
-8.25174

$$$$
ZINC000019079306


 28 31  0  0  0  0  0  0  0  0999 V2000
   -9.3965   19.0764   -6.1136 C   0  0  0  0  0  0  0  0  0  0  0  0
   -8.4553   18.1879   -5.8659 N   0  0  0  0  0  0  0  0  0  0  0  0
   -7.5591   17.8818   -6.7890 C   0  0  0  0  0  0  0  0  0  0  0  0
   -7.6195   18.5084   -8.0272 C   0  0  0  0  0  0  0  0  0  0  0  0
   -6.5796   18.1712   -9.0619 C   0  0  0  0  0  0  0  0  0  0  0  0
   -6.9758   18.7371  -10.3571 N   0  0  0  0  0  0  0  0  0  0  0  0
   -6.8767   18.0203  -11.4941 C   0  0  0  0  0  0  0  0  0  0  0  0
   -7.2109   18.5111  -12.5516 O   0  0  0  0  0  0  0  0  0  0  0  0
   -7.4862   20.1180  -10.3658 C   0  0  0  0  0  0  0  0  0  0  0  0
   -8.7874   20.1474   -9.5642 C   0  0  0  0  0  0  0  0  0  0  0  0
   -8.6226   19.4256   -8.2550 C   0  0  0  0  0  0  0  0  0  0  0  0
   -9.4884   19.6808   -7.2791 N   0  0  0  0  0  0  0  0  0  0  0  0
  -10.9841   15.9867   -3.3115 C   0  0  0  0  0  0  0  0  0  0  0  0
  -10.9164   17.0382   -4.3889 C   0  0  0  0  0  0  0  0  0  0  0  0
  -11.2279   16.7603   -5.5277 O   0  0  0  0  0  0  0  0  0  0  0  0
  -10.5099   18.2872   -4.0871 N   0  0  0  0  0  0  0  0  0  0  0  0
  -10.0980   18.7575   -2.7520 C   0  0  0  0  0  0  0  0  0  0  0  0
  -10.3313   20.2887   -2.7817 C   0  0  0  0  0  0  0  0  0  0  0  0
   -9.9243   20.6376   -4.2377 C   0  0  0  0  0  0  0  0  0  0  0  0
  -10.3976   19.4045   -5.0360 C   0  0  0  0  0  0  0  0  0  0  0  0
   -6.3507   16.6086  -11.4514 C   0  0  0  0  0  0  0  0  0  0  0  0
   -5.4453   16.3651  -12.6604 C   0  0  0  0  0  0  0  0  0  0  0  0
   -7.4764   15.6654  -11.4847 N   0  0  0  0  0  0  0  0  0  0  0  0
   -7.5771   14.9215  -10.2226 C   0  0  0  0  0  0  0  0  0  0  0  0
   -8.8409   14.0585  -10.2371 C   0  0  0  0  0  0  0  0  0  0  0  0
   -8.7765   13.0878  -11.4196 C   0  0  0  0  0  0  0  0  0  0  0  0
   -8.6231   13.8861  -12.7173 C   0  0  0  0  0  0  0  0  0  0  0  0
   -7.3658   14.7542  -12.6308 C   0  0  0  0  0  0  0  0  0  0  0  0
 13 14  1  0  0  0
 14 15  2  0  0  0
 14 16  1  0  0  0
 16 20  1  0  0  0
 16 17  1  0  0  0
 17 18  1  0  0  0
 18 19  1  0  0  0
 19 20  1  0  0  0
 20  1  1  0  0  0
  1 12  1  0  0  0
  1  2  2  0  0  0
  2  3  1  0  0  0
  3  4  2  0  0  0
  4 11  1  0  0  0
  4  5  1  0  0  0
  5  6  1  0  0  0
  6  7  1  0  0  0
  6  9  1  0  0  0
  7  8  2  0  0  0
  7 21  1  0  0  0
 21 22  1  0  0  0
 21 23  1  0  0  0
 23 28  1  0  0  0
 23 24  1  0  0  0
 24 25  1  0  0  0
 25 26  1  0  0  0
 26 27  1  0  0  0
 27 28  1  0  0  0
  9 10  1  0  0  0
 10 11  1  0  0  0
 11 12  2  0  0  0
M  END
> <minimizedAffinity>
-7.98529

$$$$
ZINC000238163278


 19 20  0  0  0  0  0  0  0  0999 V2000
   -7.6471   15.1768  -11.1732 N   0  0  0  0  0  0  0  0  0  0  0  0
   -6.9104   16.4451  -11.2645 C   0  0  0  0  0  0  0  0  0  0  0  0
   -7.5726   17.4832  -10.3554 C   0  0  0  0  0  0  0  0  0  0  0  0
   -7.5856   16.9833   -8.9736 N   0  0  0  0  0  0  0  0  0  0  0  0
   -8.3222   15.7149   -8.8823 C   0  0  0  0  0  0  0  0  0  0  0  0
   -7.6601   14.6768   -9.7913 C   0  0  0  0  0  0  0  0  0  0  0  0
   -8.1160   17.9313   -8.1056 C   0  0  0  0  0  0  0  0  0  0  0  0
   -8.6616   19.1043   -8.6165 C   0  0  0  0  0  0  0  0  0  0  0  0
   -9.1859   20.0392   -7.7419 C   0  0  0  0  0  0  0  0  0  0  0  0
   -9.1466   19.7681   -6.3801 C   0  0  0  0  0  0  0  0  0  0  0  0
   -9.8490   21.0092   -5.1383 Br  0  0  0  0  0  0  0  0  0  0  0  0
   -8.5895   18.5821   -5.9425 C   0  0  0  0  0  0  0  0  0  0  0  0
   -8.1018   17.7067   -6.8008 N   0  0  0  0  0  0  0  0  0  0  0  0
   -7.0867   14.1753  -12.0902 C   0  0  0  0  0  0  0  0  0  0  0  0
   -8.1089   13.0587  -12.3126 C   0  0  0  0  0  0  0  0  0  0  0  0
   -8.3485   10.9795  -11.2106 O   0  0  0  0  0  0  0  0  0  0  0  0
   -7.5821   11.7723  -11.7309 C   0  0  0  0  0  0  0  0  0  0  0  0
   -6.3901   11.5219  -11.7849 O   0  0  0  0  0  0  0  0  0  0  0  0
   -8.3478   10.9825  -11.2145 H   0  0  0  0  0  0  0  0  0  0  0  0
 16 17  2  0  0  0
 17 18  1  0  0  0
 17 15  1  0  0  0
 15 14  1  0  0  0
 14  1  1  0  0  0
  1  6  1  0  0  0
  1  2  1  0  0  0
  2  3  1  0  0  0
  3  4  1  0  0  0
  4  7  1  0  0  0
  4  5  1  0  0  0
  7 13  1  0  0  0
  7  8  2  0  0  0
  8  9  1  0  0  0
  9 10  2  0  0  0
 10 11  1  0  0  0
 10 12  1  0  0  0
 12 13  2  0  0  0
  5  6  1  0  0  0
 18 19  1  0  0  0
M  END
> <minimizedAffinity>
-6.65556

$$$$
ZINC000618252121


 25 27  0  0  0  0  0  0  0  0999 V2000
   -5.8240   15.2438  -10.2174 N   0  0  0  0  0  0  0  0  0  0  0  0
   -5.9906   14.8779   -8.8745 N   0  0  0  0  0  0  0  0  0  0  0  0
   -6.7060   15.8319   -8.2457 C   0  0  0  0  0  0  0  0  0  0  0  0
   -7.0128   16.8202   -9.1549 C   0  0  0  0  0  0  0  0  0  0  0  0
   -6.4480   16.4495  -10.4057 C   0  0  0  0  0  0  0  0  0  0  0  0
   -6.6152   17.2551  -11.4418 N   0  0  0  0  0  0  0  0  0  0  0  0
   -7.2900   18.3884  -11.3429 C   0  0  0  0  0  0  0  0  0  0  0  0
   -7.8453   18.8131  -10.2343 N   0  0  0  0  0  0  0  0  0  0  0  0
   -7.7523   18.0942   -9.0926 C   0  0  0  0  0  0  0  0  0  0  0  0
   -8.3073   18.5113   -7.9720 N   0  0  0  0  0  0  0  0  0  0  0  0
   -3.1395   14.7754   -9.8227 H   0  0  0  0  0  0  0  0  0  0  0  0
   -5.1048   14.4765  -11.2374 C   0  0  0  0  0  0  0  0  0  0  0  0
   -5.6643   13.7116  -13.4605 O   0  0  0  0  0  0  0  0  0  0  0  0
   -6.1087   13.7118  -12.1024 C   0  0  0  0  0  0  0  0  0  0  0  0
   -5.7547   14.0104  -13.5424 H   0  0  0  0  0  0  0  0  0  0  0  0
   -9.0433   19.7778   -7.9463 C   0  0  0  0  0  0  0  0  0  0  0  0
   -9.3640   20.1517   -6.4978 C   0  0  0  0  0  0  0  0  0  0  0  0
  -10.0875   21.4299   -6.4707 N   0  0  0  0  0  0  0  0  0  0  0  0
  -10.6776   21.6100   -5.1271 C   0  0  0  0  0  0  0  0  0  0  0  0
   -9.6790   22.0774   -4.1031 C   0  0  0  0  0  0  0  0  0  0  0  0
   -9.7547   23.6177   -4.0210 C   0  0  0  0  0  0  0  0  0  0  0  0
   -9.0549   24.2621   -5.1250 C   0  0  0  0  0  0  0  0  0  0  0  0
   -9.6535   23.8800   -6.4964 C   0  0  0  0  0  0  0  0  0  0  0  0
   -9.1542   22.5088   -6.8599 C   0  0  0  0  0  0  0  0  0  0  0  0
   -6.5998   12.9595  -11.2049 H   0  0  0  0  0  0  0  0  0  0  0  0
 13 14  1  0  0  0
 14 12  1  0  0  0
 12  1  1  0  0  0
  1  5  1  0  0  0
  1  2  1  0  0  0
  2  3  1  0  0  0
  3  4  2  0  0  0
  4  9  1  0  0  0
  4  5  1  0  0  0
  5  6  2  0  0  0
  6  7  1  0  0  0
  7  8  2  0  0  0
  8  9  1  0  0  0
  9 10  2  0  0  0
 10 16  1  0  0  0
 16 17  1  0  0  0
 17 18  1  0  0  0
 18 24  1  0  0  0
 18 19  1  0  0  0
 19 20  1  0  0  0
 20 21  1  0  0  0
 21 22  1  0  0  0
 22 23  1  0  0  0
 23 24  1  0  0  0
 13 15  1  0  0  0
  2 11  1  0  0  0
 18 25  1  0  0  0
M  CHG 1  18   1
M  END
> <minimizedAffinity>
-6.86647

$$$$
ZINC000095466033


 24 26  0  0  0  0  0  0  0  0999 V2000
   -6.5221   14.0436  -11.2511 C   0  0  0  0  0  0  0  0  0  0  0  0
   -6.5135   15.4173  -11.0083 C   0  0  0  0  0  0  0  0  0  0  0  0
   -6.4367   15.8858   -9.7055 C   0  0  0  0  0  0  0  0  0  0  0  0
   -6.3686   14.9876   -8.6469 C   0  0  0  0  0  0  0  0  0  0  0  0
   -6.3767   13.6262   -8.8875 C   0  0  0  0  0  0  0  0  0  0  0  0
   -6.4592   13.1497  -10.1798 C   0  0  0  0  0  0  0  0  0  0  0  0
   -6.4281   17.2606   -9.4568 N   0  0  0  0  0  0  0  0  0  0  0  0
   -7.0320   17.5665   -8.1324 C   0  0  0  0  0  0  0  0  0  0  0  0
   -8.1479   18.6208   -8.3756 C   0  0  0  0  0  0  0  0  0  0  0  0
   -7.7022   19.2471   -9.7045 C   0  0  0  0  0  0  0  0  0  0  0  0
   -8.8070   19.8572  -10.5508 C   0  0  0  0  0  0  0  0  0  0  0  0
   -8.1783   20.2365  -11.9019 C   0  0  0  0  0  0  0  0  0  0  0  0
   -7.5760   19.0829  -12.5691 N   0  0  0  0  0  0  0  0  0  0  0  0
   -6.9517   19.5293  -13.8217 C   0  0  0  0  0  0  0  0  0  0  0  0
   -6.5515   18.4252  -11.7334 C   0  0  0  0  0  0  0  0  0  0  0  0
   -7.2122   17.9759  -10.4532 C   0  0  0  0  0  0  0  0  0  0  0  0
   -3.9156   13.0603   -7.6340 H   0  0  0  0  0  0  0  0  0  0  0  0
   -6.4673   11.6910  -10.4315 N   0  0  0  0  0  0  0  0  0  0  0  0
   -5.4186   11.0723  -10.4614 O   0  0  0  0  0  0  0  0  0  0  0  0
   -7.5228   11.1095  -10.6086 O   0  0  0  0  0  0  0  0  0  0  0  0
   -6.6036   13.5361  -12.6361 C   0  0  0  0  0  0  0  0  0  0  0  0
   -5.6306   13.5905  -13.3612 O   0  0  0  0  0  0  0  0  0  0  0  0
   -8.9765   13.7423  -12.7965 C   0  0  0  0  0  0  0  0  0  0  0  0
   -7.7570   13.0128  -13.0949 O   0  0  0  0  0  0  0  0  0  0  0  0
 23 24  1  0  0  0
 24 21  1  0  0  0
 21 22  2  0  0  0
 21  1  1  0  0  0
  1  6  2  0  0  0
  1  2  1  0  0  0
  2  3  2  0  0  0
  3  7  1  0  0  0
  3  4  1  0  0  0
  7 16  1  0  0  0
  7  8  1  0  0  0
  8  9  1  0  0  0
  9 10  1  0  0  0
 10 16  1  0  0  0
 10 11  1  0  0  0
 11 12  1  0  0  0
 12 13  1  0  0  0
 13 14  1  0  0  0
 13 15  1  0  0  0
 15 16  1  0  0  0
  4  5  2  0  0  0
  5  6  1  0  0  0
  6 18  1  0  0  0
 18 19  1  0  0  0
 18 20  2  0  0  0
 13 17  1  0  0  0
M  CHG 1  13   1
M  CHG 1  18   1
M  CHG 1  19  -1
M  END
> <minimizedAffinity>
-7.95701

$$$$
ZINC000257240487


 28 30  0  0  0  0  0  0  0  0999 V2000
   -6.1506   17.3644  -10.8441 C   0  0  0  0  0  0  0  0  0  0  0  0
   -7.4461   17.9896  -10.3160 C   0  0  0  0  0  0  0  0  0  0  0  0
   -7.6976   17.5122   -8.9503 N   0  0  0  0  0  0  0  0  0  0  0  0
   -7.9347   16.0632   -8.9629 C   0  0  0  0  0  0  0  0  0  0  0  0
   -6.6636   15.3426   -9.4239 C   0  0  0  0  0  0  0  0  0  0  0  0
   -6.2499   15.9019  -10.7211 N   0  0  0  0  0  0  0  0  0  0  0  0
   -5.9777   15.0973  -11.7674 C   0  0  0  0  0  0  0  0  0  0  0  0
   -5.5255   15.5666  -12.7931 O   0  0  0  0  0  0  0  0  0  0  0  0
   -5.5982   17.6820  -12.4414 H   0  0  0  0  0  0  0  0  0  0  0  0
   -6.2297   13.6408  -11.6673 C   0  0  0  0  0  0  0  0  0  0  0  0
   -7.4882   13.1076  -11.9616 C   0  0  0  0  0  0  0  0  0  0  0  0
   -7.6793   11.7436  -11.8550 C   0  0  0  0  0  0  0  0  0  0  0  0
   -6.6956   10.9494  -11.4822 N   0  0  0  0  0  0  0  0  0  0  0  0
   -5.4944   11.4108  -11.1958 C   0  0  0  0  0  0  0  0  0  0  0  0
   -5.2141   12.7607  -11.2816 C   0  0  0  0  0  0  0  0  0  0  0  0
   -4.7368   18.0725  -12.7462 N   0  0  0  0  0  0  0  0  0  0  0  0
   -5.9608   17.7392  -12.2913 C   0  0  0  0  0  0  0  0  0  0  0  0
   -6.9097   17.7408  -13.0468 O   0  0  0  0  0  0  0  0  0  0  0  0
   -5.6548   17.5695  -12.4780 H   0  0  0  0  0  0  0  0  0  0  0  0
   -5.6548   17.5695  -12.4780 H   0  0  0  0  0  0  0  0  0  0  0  0
   -8.8793   18.1935   -8.4053 C   0  0  0  0  0  0  0  0  0  0  0  0
   -8.7941   18.2191   -6.8778 C   0  0  0  0  0  0  0  0  0  0  0  0
   -9.1071   19.6067   -6.3803 C   0  0  0  0  0  0  0  0  0  0  0  0
   -9.1014   20.6736   -7.2593 C   0  0  0  0  0  0  0  0  0  0  0  0
   -9.3885   21.9466   -6.8030 C   0  0  0  0  0  0  0  0  0  0  0  0
   -9.6817   22.1525   -5.4679 C   0  0  0  0  0  0  0  0  0  0  0  0
   -9.6884   21.0854   -4.5892 C   0  0  0  0  0  0  0  0  0  0  0  0
   -9.4054   19.8119   -5.0463 C   0  0  0  0  0  0  0  0  0  0  0  0
 16 17  1  0  0  0
 17 18  2  0  0  0
 17  1  1  0  0  0
  1  6  1  0  0  0
  1  2  1  0  0  0
  2  3  1  0  0  0
  3 21  1  0  0  0
  3  4  1  0  0  0
 21 22  1  0  0  0
 22 23  1  0  0  0
 23 28  1  0  0  0
 23 24  2  0  0  0
 24 25  1  0  0  0
 25 26  2  0  0  0
 26 27  1  0  0  0
 27 28  2  0  0  0
  4  5  1  0  0  0
  5  6  1  0  0  0
  6  7  1  0  0  0
  7  8  2  0  0  0
  7 10  1  0  0  0
 10 15  1  0  0  0
 10 11  2  0  0  0
 11 12  1  0  0  0
 12 13  2  0  0  0
 13 14  1  0  0  0
 14 15  2  0  0  0
 16 19  1  0  0  0
 16 20  1  0  0  0
  3  9  1  0  0  0
M  CHG 1   3   1
M  END
> <minimizedAffinity>
-7.87734

$$$$
ZINC000514288785


 29 31  0  0  0  0  0  0  0  0999 V2000
   -6.9339   15.2780   -8.5012 C   0  0  0  0  0  0  0  0  0  0  0  0
   -8.3019   15.3965   -8.9260 O   0  0  0  0  0  0  0  0  0  0  0  0
   -9.1262   15.1484   -7.7668 C   0  0  0  0  0  0  0  0  0  0  0  0
   -8.3701   15.8724   -6.6238 C   0  0  0  0  0  0  0  0  0  0  0  0
   -6.8875   15.6087   -6.9968 C   0  0  0  0  0  0  0  0  0  0  0  0
   -6.3729   14.5040   -6.2506 O   0  0  0  0  0  0  0  0  0  0  0  0
   -3.7956   17.1599   -9.5691 H   0  0  0  0  0  0  0  0  0  0  0  0
   -8.6656   17.3073   -6.6282 N   0  0  0  0  0  0  0  0  0  0  0  0
   -9.0438   17.9209   -5.4894 C   0  0  0  0  0  0  0  0  0  0  0  0
   -9.1398   17.2839   -4.4587 O   0  0  0  0  0  0  0  0  0  0  0  0
   -7.0622   16.4796  -12.0256 H   0  0  0  0  0  0  0  0  0  0  0  0
   -9.3422   19.3696   -5.4939 C   0  0  0  0  0  0  0  0  0  0  0  0
   -9.2139   20.1051   -6.6739 C   0  0  0  0  0  0  0  0  0  0  0  0
   -9.4917   21.4540   -6.6783 C   0  0  0  0  0  0  0  0  0  0  0  0
   -9.9016   22.0864   -5.5023 C   0  0  0  0  0  0  0  0  0  0  0  0
  -10.0299   21.3505   -4.3221 C   0  0  0  0  0  0  0  0  0  0  0  0
   -9.7575   20.0005   -4.3195 C   0  0  0  0  0  0  0  0  0  0  0  0
  -10.1909   23.4889   -5.5068 C   0  0  0  0  0  0  0  0  0  0  0  0
  -10.4204   24.6014   -5.5103 N   0  0  0  0  0  0  0  0  0  0  0  0
   -6.0605   16.2652   -9.2780 C   0  0  0  0  0  0  0  0  0  0  0  0
   -6.8905   17.5557  -11.1291 C   0  0  0  0  0  0  0  0  0  0  0  0
   -5.9632   18.0253  -12.2696 C   0  0  0  0  0  0  0  0  0  0  0  0
   -5.3713   16.6964  -12.8085 C   0  0  0  0  0  0  0  0  0  0  0  0
   -5.2328   15.8656  -11.5084 C   0  0  0  0  0  0  0  0  0  0  0  0
   -6.4225   16.2245  -10.7011 N   0  0  0  0  0  0  0  0  0  0  0  0
   -5.3023   18.5828   -9.5401 H   0  0  0  0  0  0  0  0  0  0  0  0
   -6.8122   18.5364   -9.9573 C   0  0  0  0  0  0  0  0  0  0  0  0
   -8.3133   20.3709  -10.3129 C   0  0  0  0  0  0  0  0  0  0  0  0
   -8.1064   19.0907   -9.7128 O   0  0  0  0  0  0  0  0  0  0  0  0
 28 29  1  0  0  0
 29 27  1  0  0  0
 27 21  1  0  0  0
 21 25  1  0  0  0
 21 22  1  0  0  0
 22 23  1  0  0  0
 23 24  1  0  0  0
 24 25  1  0  0  0
 25 20  1  0  0  0
 20  1  1  0  0  0
  1  5  1  0  0  0
  1  2  1  0  0  0
  2  3  1  0  0  0
  3  4  1  0  0  0
  4  8  1  0  0  0
  4  5  1  0  0  0
  8  9  1  0  0  0
  9 10  2  0  0  0
  9 12  1  0  0  0
 12 17  1  0  0  0
 12 13  2  0  0  0
 13 14  1  0  0  0
 14 15  2  0  0  0
 15 18  1  0  0  0
 15 16  1  0  0  0
 18 19  3  0  0  0
 16 17  2  0  0  0
  5  6  1  0  0  0
 25 26  1  0  0  0
  8 11  1  0  0  0
  6  7  1  0  0  0
M  CHG 1  25   1
M  END
> <minimizedAffinity>
-7.18860

$$$$
ZINC000008453434


 26 28  0  0  0  0  0  0  0  0999 V2000
   -9.6643   13.8228  -12.7961 N   0  0  0  0  0  0  0  0  0  0  0  0
   -8.4436   13.8970  -12.1734 C   0  0  0  0  0  0  0  0  0  0  0  0
   -8.3936   14.2432  -10.9064 N   0  0  0  0  0  0  0  0  0  0  0  0
   -7.2260   14.3287  -10.2584 C   0  0  0  0  0  0  0  0  0  0  0  0
   -6.0345   14.0460  -10.9362 C   0  0  0  0  0  0  0  0  0  0  0  0
   -5.0204   14.2092  -10.0519 N   0  0  0  0  0  0  0  0  0  0  0  0
   -5.5070   14.5666   -8.8996 C   0  0  0  0  0  0  0  0  0  0  0  0
   -6.8667   14.6537   -8.9785 N   0  0  0  0  0  0  0  0  0  0  0  0
   -6.1028   13.6751  -12.2995 C   0  0  0  0  0  0  0  0  0  0  0  0
   -5.0904   13.4200  -12.9290 O   0  0  0  0  0  0  0  0  0  0  0  0
   -7.3187   13.6044  -12.8852 N   0  0  0  0  0  0  0  0  0  0  0  0
   -8.4484   13.8954  -12.1730 H   0  0  0  0  0  0  0  0  0  0  0  0
   -8.4484   13.8954  -12.1730 H   0  0  0  0  0  0  0  0  0  0  0  0
   -8.4484   13.8954  -12.1730 H   0  0  0  0  0  0  0  0  0  0  0  0
   -7.8940   15.0755   -7.7501 S   0  0  0  0  0  0  0  0  0  0  0  0
   -9.1161   14.3939   -7.9971 O   0  0  0  0  0  0  0  0  0  0  0  0
   -7.1560   14.9353   -6.5438 O   0  0  0  0  0  0  0  0  0  0  0  0
   -8.2388   16.7945   -7.9255 C   0  0  0  0  0  0  0  0  0  0  0  0
   -8.7019   17.5203   -6.8442 C   0  0  0  0  0  0  0  0  0  0  0  0
   -8.9723   18.8692   -6.9818 C   0  0  0  0  0  0  0  0  0  0  0  0
   -8.7791   19.4919   -8.2006 C   0  0  0  0  0  0  0  0  0  0  0  0
   -8.3150   18.7661   -9.2818 C   0  0  0  0  0  0  0  0  0  0  0  0
   -8.0406   17.4185   -9.1432 C   0  0  0  0  0  0  0  0  0  0  0  0
   -8.1086   19.4329  -10.5872 N   0  0  0  0  0  0  0  0  0  0  0  0
   -7.5258   18.8495  -11.4835 O   0  0  0  0  0  0  0  0  0  0  0  0
   -8.5214   20.5650  -10.7647 O   0  0  0  0  0  0  0  0  0  0  0  0
  1  2  1  0  0  0
  2 11  1  0  0  0
  2  3  2  0  0  0
  3  4  1  0  0  0
  4  8  1  0  0  0
  4  5  2  0  0  0
  5  6  1  0  0  0
  5  9  1  0  0  0
  6  7  2  0  0  0
  7  8  1  0  0  0
  8 15  1  0  0  0
 15 16  2  0  0  0
 15 17  2  0  0  0
 15 18  1  0  0  0
 18 23  1  0  0  0
 18 19  2  0  0  0
 19 20  1  0  0  0
 20 21  2  0  0  0
 21 22  1  0  0  0
 22 24  1  0  0  0
 22 23  2  0  0  0
 24 25  1  0  0  0
 24 26  2  0  0  0
  9 10  2  0  0  0
  9 11  1  0  0  0
  1 12  1  0  0  0
  1 13  1  0  0  0
 11 14  1  0  0  0
M  CHG 1  24   1
M  CHG 1  25  -1
M  END
> <minimizedAffinity>
-8.40421

$$$$
ZINC000038290757


 25 26  0  0  0  0  0  0  0  0999 V2000
   -8.9439   19.5514   -8.1900 N   0  0  0  0  0  0  0  0  0  0  0  0
   -8.2190   17.9187   -9.8103 H   0  0  0  0  0  0  0  0  0  0  0  0
   -9.0704   20.7806   -7.8196 N   0  0  0  0  0  0  0  0  0  0  0  0
   -9.3782   21.0639   -6.5695 C   0  0  0  0  0  0  0  0  0  0  0  0
   -9.3803   20.0235   -5.5204 C   0  0  0  0  0  0  0  0  0  0  0  0
   -9.0960   18.8704   -5.7829 O   0  0  0  0  0  0  0  0  0  0  0  0
   -9.7060   20.3883   -4.2631 N   0  0  0  0  0  0  0  0  0  0  0  0
  -10.0213   21.6551   -3.9598 C   0  0  0  0  0  0  0  0  0  0  0  0
  -10.4210   22.0229   -2.3363 S   0  0  0  0  0  0  0  0  0  0  0  0
  -10.0404   22.6497   -4.8578 N   0  0  0  0  0  0  0  0  0  0  0  0
   -9.7305   22.4370   -6.1534 C   0  0  0  0  0  0  0  0  0  0  0  0
   -9.7516   23.3482   -6.9589 O   0  0  0  0  0  0  0  0  0  0  0  0
   -8.4004   17.9219   -9.8829 H   0  0  0  0  0  0  0  0  0  0  0  0
   -8.4004   17.9219   -9.8829 H   0  0  0  0  0  0  0  0  0  0  0  0
   -7.0015   17.4782   -8.2073 C   0  0  0  0  0  0  0  0  0  0  0  0
   -7.3641   18.2427   -9.4544 C   0  0  0  0  0  0  0  0  0  0  0  0
   -6.7497   17.9415  -10.6480 C   0  0  0  0  0  0  0  0  0  0  0  0
   -7.0869   18.6518  -11.8054 C   0  0  0  0  0  0  0  0  0  0  0  0
   -8.0481   19.6662  -11.7443 C   0  0  0  0  0  0  0  0  0  0  0  0
   -8.6588   19.9622  -10.5471 C   0  0  0  0  0  0  0  0  0  0  0  0
   -8.3248   19.2495   -9.3984 C   0  0  0  0  0  0  0  0  0  0  0  0
   -6.4316   18.3317  -13.0851 C   0  0  0  0  0  0  0  0  0  0  0  0
   -6.9058   18.7433  -14.1350 O   0  0  0  0  0  0  0  0  0  0  0  0
   -5.4132   17.6542  -13.0981 O   0  0  0  0  0  0  0  0  0  0  0  0
   -8.8406   19.7636  -10.5897 H   0  0  0  0  0  0  0  0  0  0  0  0
 15 16  1  0  0  0
 16 21  2  0  0  0
 16 17  1  0  0  0
 17 18  2  0  0  0
 18 22  1  0  0  0
 18 19  1  0  0  0
 22 23  2  0  0  0
 22 24  1  0  0  0
 19 20  2  0  0  0
 20 21  1  0  0  0
 21  1  1  0  0  0
  1  3  1  0  0  0
  3  4  2  0  0  0
  4 11  1  0  0  0
  4  5  1  0  0  0
  5  6  2  0  0  0
  5  7  1  0  0  0
  7  8  1  0  0  0
  8  9  2  0  0  0
  8 10  1  0  0  0
 10 11  1  0  0  0
 11 12  2  0  0  0
 24 25  1  0  0  0
  1  2  1  0  0  0
  7 13  1  0  0  0
 10 14  1  0  0  0
M  END
> <minimizedAffinity>
-7.35848

$$$$
ZINC000024993361


 24 25  0  0  0  0  0  0  0  0999 V2000
   -7.2075   16.1204   -7.8795 N   0  0  0  0  0  0  0  0  0  0  0  0
   -5.8602   15.9546   -7.3181 C   0  0  0  0  0  0  0  0  0  0  0  0
   -7.6273   14.9145   -8.6057 C   0  0  0  0  0  0  0  0  0  0  0  0
   -9.1498   14.9144   -8.7571 C   0  0  0  0  0  0  0  0  0  0  0  0
   -6.9868   14.9012   -9.9698 C   0  0  0  0  0  0  0  0  0  0  0  0
   -7.0465   15.8840  -10.6771 O   0  0  0  0  0  0  0  0  0  0  0  0
   -6.3477   13.7967  -10.4034 N   0  0  0  0  0  0  0  0  0  0  0  0
   -5.5882   13.6890  -11.6580 C   0  0  0  0  0  0  0  0  0  0  0  0
   -5.0763   12.2355  -11.6562 C   0  0  0  0  0  0  0  0  0  0  0  0
   -5.6018   11.6784  -10.4008 N   0  0  0  0  0  0  0  0  0  0  0  0
   -6.2986   12.6244   -9.7573 C   0  0  0  0  0  0  0  0  0  0  0  0
   -6.8445   12.4335   -8.6883 O   0  0  0  0  0  0  0  0  0  0  0  0
   -9.7950   23.8741   -5.0024 H   0  0  0  0  0  0  0  0  0  0  0  0
   -8.1759   16.4671   -6.8306 C   0  0  0  0  0  0  0  0  0  0  0  0
   -9.1834   20.6089   -7.1350 C   0  0  0  0  0  0  0  0  0  0  0  0
   -9.1065   20.0022   -5.8898 C   0  0  0  0  0  0  0  0  0  0  0  0
   -8.7810   18.6631   -5.7940 C   0  0  0  0  0  0  0  0  0  0  0  0
   -8.5313   17.9276   -6.9379 C   0  0  0  0  0  0  0  0  0  0  0  0
   -8.6078   18.5299   -8.1802 C   0  0  0  0  0  0  0  0  0  0  0  0
   -8.9380   19.8675   -8.2816 C   0  0  0  0  0  0  0  0  0  0  0  0
   -9.5039   21.9260   -7.2317 O   0  0  0  0  0  0  0  0  0  0  0  0
   -9.7952   22.6140   -6.0137 C   0  0  0  0  0  0  0  0  0  0  0  0
   -9.3372   25.0123   -5.9997 C   0  0  0  0  0  0  0  0  0  0  0  0
   -8.8703   23.7952   -5.8703 C   0  0  0  0  0  0  0  0  0  0  0  0
 23 24  2  0  0  0
 24 22  1  0  0  0
 22 21  1  0  0  0
 21 15  1  0  0  0
 15 20  2  0  0  0
 15 16  1  0  0  0
 16 17  2  0  0  0
 17 18  1  0  0  0
 18 14  1  0  0  0
 18 19  2  0  0  0
 14  1  1  0  0  0
  1  2  1  0  0  0
  1  3  1  0  0  0
  3  4  1  0  0  0
  3  5  1  0  0  0
  5  6  2  0  0  0
  5  7  1  0  0  0
  7 11  1  0  0  0
  7  8  1  0  0  0
  8  9  1  0  0  0
  9 10  1  0  0  0
 10 11  1  0  0  0
 11 12  2  0  0  0
 19 20  1  0  0  0
 10 13  1  0  0  0
M  END
> <minimizedAffinity>
-6.41159

$$$$
ZINC000069535446


 25 27  0  0  0  0  0  0  0  0999 V2000
   -8.1702   19.0541  -11.0457 N   0  0  0  0  0  0  0  0  0  0  0  0
   -8.0046   20.1655  -11.9910 C   0  0  0  0  0  0  0  0  0  0  0  0
   -7.7389   19.6101  -13.3921 C   0  0  0  0  0  0  0  0  0  0  0  0
   -6.4738   18.7478  -13.3625 C   0  0  0  0  0  0  0  0  0  0  0  0
   -6.6539   17.6264  -12.3354 C   0  0  0  0  0  0  0  0  0  0  0  0
   -6.9511   18.2394  -10.9650 C   0  0  0  0  0  0  0  0  0  0  0  0
   -8.5635   19.5459   -9.7186 C   0  0  0  0  0  0  0  0  0  0  0  0
   -7.7833   18.7886   -8.6422 C   0  0  0  0  0  0  0  0  0  0  0  0
   -8.8059   19.5845   -6.6697 O   0  0  0  0  0  0  0  0  0  0  0  0
   -8.6404   18.6395   -7.4117 C   0  0  0  0  0  0  0  0  0  0  0  0
   -9.2184   17.4544   -7.1326 N   0  0  0  0  0  0  0  0  0  0  0  0
   -9.0271   16.2920   -8.0144 C   0  0  0  0  0  0  0  0  0  0  0  0
   -8.5941   15.0990   -7.1546 C   0  0  0  0  0  0  0  0  0  0  0  0
   -9.5202   14.9338   -6.0782 O   0  0  0  0  0  0  0  0  0  0  0  0
   -9.5758   16.0433   -5.1784 C   0  0  0  0  0  0  0  0  0  0  0  0
  -10.0546   17.2830   -5.9339 C   0  0  0  0  0  0  0  0  0  0  0  0
   -5.3720   16.7950  -12.2569 C   0  0  0  0  0  0  0  0  0  0  0  0
   -5.7009   15.3720  -12.4143 N   0  0  0  0  0  0  0  0  0  0  0  0
   -5.1228   14.6253  -11.2765 C   0  0  0  0  0  0  0  0  0  0  0  0
   -5.9399   14.7435  -10.0185 C   0  0  0  0  0  0  0  0  0  0  0  0
   -6.8963   13.5330   -9.9469 C   0  0  0  0  0  0  0  0  0  0  0  0
   -8.0538   13.6948  -10.8175 C   0  0  0  0  0  0  0  0  0  0  0  0
   -7.6514   13.8308  -12.3022 C   0  0  0  0  0  0  0  0  0  0  0  0
   -7.1688   15.2369  -12.5301 C   0  0  0  0  0  0  0  0  0  0  0  0
   -6.4944   23.9007  -13.9794 H   0  0  0  0  0  0  0  0  0  0  0  0
  9 10  2  0  0  0
 10  8  1  0  0  0
 10 11  1  0  0  0
  8  7  1  0  0  0
  7  1  1  0  0  0
  1  6  1  0  0  0
  1  2  1  0  0  0
  2  3  1  0  0  0
  3  4  1  0  0  0
  4  5  1  0  0  0
  5 17  1  0  0  0
  5  6  1  0  0  0
 17 18  1  0  0  0
 18 24  1  0  0  0
 18 19  1  0  0  0
 19 20  1  0  0  0
 20 21  1  0  0  0
 21 22  1  0  0  0
 22 23  1  0  0  0
 23 24  1  0  0  0
 11 16  1  0  0  0
 11 12  1  0  0  0
 12 13  1  0  0  0
 13 14  1  0  0  0
 14 15  1  0  0  0
 15 16  1  0  0  0
 18 25  1  0  0  0
M  CHG 1  18   1
M  END
> <minimizedAffinity>
-7.36484

$$$$
ZINC000072417839


 30 34  0  0  0  0  0  0  0  0999 V2000
   -7.8282   19.4064  -11.3632 C   0  0  0  0  0  0  0  0  0  0  0  0
   -7.8527   18.4394  -10.4749 N   0  0  0  0  0  0  0  0  0  0  0  0
   -8.2959   18.9583   -9.2531 N   0  0  0  0  0  0  0  0  0  0  0  0
   -8.5433   20.2952   -9.4340 C   0  0  0  0  0  0  0  0  0  0  0  0
   -8.2504   20.5831  -10.7615 C   0  0  0  0  0  0  0  0  0  0  0  0
   -8.9830   21.0521   -8.4215 N   0  0  0  0  0  0  0  0  0  0  0  0
   -9.1896   20.5312   -7.2230 C   0  0  0  0  0  0  0  0  0  0  0  0
   -8.9486   19.1652   -6.9957 C   0  0  0  0  0  0  0  0  0  0  0  0
   -8.4990   18.3863   -8.0239 C   0  0  0  0  0  0  0  0  0  0  0  0
   -8.2548   17.0429   -7.8288 N   0  0  0  0  0  0  0  0  0  0  0  0
   -9.3442   16.0776   -8.0788 C   0  0  0  0  0  0  0  0  0  0  0  0
   -8.8188   14.8253   -8.8041 C   0  0  0  0  0  0  0  0  0  0  0  0
   -7.8034   15.2368   -9.8471 C   0  0  0  0  0  0  0  0  0  0  0  0
   -6.4633   15.1699   -9.2684 N   0  0  0  0  0  0  0  0  0  0  0  0
   -6.0389   16.3464   -8.6117 C   0  0  0  0  0  0  0  0  0  0  0  0
   -6.9375   16.6290   -7.3916 C   0  0  0  0  0  0  0  0  0  0  0  0
  -11.2180   20.2626   -9.2394 H   0  0  0  0  0  0  0  0  0  0  0  0
   -5.5081   14.8733  -10.3443 C   0  0  0  0  0  0  0  0  0  0  0  0
   -5.4199   13.3818  -10.5407 C   0  0  0  0  0  0  0  0  0  0  0  0
   -5.8421   12.5164   -9.5433 C   0  0  0  0  0  0  0  0  0  0  0  0
   -5.7427   11.1516   -9.7680 C   0  0  0  0  0  0  0  0  0  0  0  0
   -5.2297   10.7027  -10.9700 C   0  0  0  0  0  0  0  0  0  0  0  0
   -4.8376   11.5554  -11.8966 N   0  0  0  0  0  0  0  0  0  0  0  0
   -4.9223   12.8593  -11.7196 C   0  0  0  0  0  0  0  0  0  0  0  0
   -9.6771   21.3905   -6.1171 C   0  0  0  0  0  0  0  0  0  0  0  0
   -9.9400   22.7478   -6.3247 C   0  0  0  0  0  0  0  0  0  0  0  0
  -10.3925   23.5113   -5.2677 C   0  0  0  0  0  0  0  0  0  0  0  0
  -10.5765   22.9766   -4.0761 N   0  0  0  0  0  0  0  0  0  0  0  0
  -10.3407   21.7009   -3.8379 C   0  0  0  0  0  0  0  0  0  0  0  0
   -9.8921   20.8642   -4.8399 C   0  0  0  0  0  0  0  0  0  0  0  0
  1  5  1  0  0  0
  1  2  2  0  0  0
  2  3  1  0  0  0
  3  9  1  0  0  0
  3  4  1  0  0  0
  4  5  2  0  0  0
  4  6  1  0  0  0
  6  7  2  0  0  0
  7 25  1  0  0  0
  7  8  1  0  0  0
 25 30  1  0  0  0
 25 26  2  0  0  0
 26 27  1  0  0  0
 27 28  2  0  0  0
 28 29  1  0  0  0
 29 30  2  0  0  0
  8  9  2  0  0  0
  9 10  1  0  0  0
 10 16  1  0  0  0
 10 11  1  0  0  0
 11 12  1  0  0  0
 12 13  1  0  0  0
 13 14  1  0  0  0
 14 18  1  0  0  0
 14 15  1  0  0  0
 18 19  1  0  0  0
 19 24  1  0  0  0
 19 20  2  0  0  0
 20 21  1  0  0  0
 21 22  2  0  0  0
 22 23  1  0  0  0
 23 24  2  0  0  0
 15 16  1  0  0  0
 14 17  1  0  0  0
M  CHG 1  14   1
M  END
> <minimizedAffinity>
-8.55095

$$$$
ZINC000065563869


 24 26  0  0  0  0  0  0  0  0999 V2000
   -8.2340   20.4341  -10.7963 C   0  0  0  0  0  0  0  0  0  0  0  0
   -8.2959   19.4495   -9.6572 C   0  0  0  0  0  0  0  0  0  0  0  0
   -8.9716   19.6034   -8.5474 N   0  0  0  0  0  0  0  0  0  0  0  0
   -8.7719   18.4710   -7.7477 N   0  0  0  0  0  0  0  0  0  0  0  0
   -9.3501   18.2391   -6.4218 C   0  0  0  0  0  0  0  0  0  0  0  0
   -7.9511   17.6291   -8.4162 C   0  0  0  0  0  0  0  0  0  0  0  0
   -7.6462   18.2129   -9.6080 C   0  0  0  0  0  0  0  0  0  0  0  0
   -7.5041   16.3888   -7.9695 N   0  0  0  0  0  0  0  0  0  0  0  0
   -8.3564   15.1938   -8.0739 C   0  0  0  0  0  0  0  0  0  0  0  0
   -7.5444   14.0776   -8.7409 C   0  0  0  0  0  0  0  0  0  0  0  0
   -6.3065   13.9155   -8.0443 O   0  0  0  0  0  0  0  0  0  0  0  0
   -5.4598   15.0669   -8.0799 C   0  0  0  0  0  0  0  0  0  0  0  0
   -6.1630   16.2327   -7.3843 C   0  0  0  0  0  0  0  0  0  0  0  0
   -6.7586   17.6333  -10.6791 C   0  0  0  0  0  0  0  0  0  0  0  0
   -7.4460   16.5098  -11.3297 N   0  0  0  0  0  0  0  0  0  0  0  0
   -8.6924   19.0980   -9.7063 H   0  0  0  0  0  0  0  0  0  0  0  0
   -8.6924   19.0980   -9.7063 H   0  0  0  0  0  0  0  0  0  0  0  0
   -6.6041   15.9804  -12.4110 C   0  0  0  0  0  0  0  0  0  0  0  0
   -6.2780   14.5359  -12.1323 C   0  0  0  0  0  0  0  0  0  0  0  0
   -5.0934   14.0570  -11.6868 C   0  0  0  0  0  0  0  0  0  0  0  0
   -5.2106   12.6690  -11.5597 C   0  0  0  0  0  0  0  0  0  0  0  0
   -6.4222   12.3268  -11.9162 N   0  0  0  0  0  0  0  0  0  0  0  0
   -7.1168   13.4886  -12.2767 N   0  0  0  0  0  0  0  0  0  0  0  0
   -8.5058   13.5542  -12.7379 C   0  0  0  0  0  0  0  0  0  0  0  0
  1  2  1  0  0  0
  2  7  1  0  0  0
  2  3  2  0  0  0
  3  4  1  0  0  0
  4  5  1  0  0  0
  4  6  1  0  0  0
  6  8  1  0  0  0
  6  7  2  0  0  0
  8 13  1  0  0  0
  8  9  1  0  0  0
  9 10  1  0  0  0
 10 11  1  0  0  0
 11 12  1  0  0  0
 12 13  1  0  0  0
  7 14  1  0  0  0
 14 15  1  0  0  0
 15 18  1  0  0  0
 18 19  1  0  0  0
 19 23  1  0  0  0
 19 20  2  0  0  0
 20 21  1  0  0  0
 21 22  2  0  0  0
 22 23  1  0  0  0
 23 24  1  0  0  0
 15 16  1  0  0  0
 15 17  1  0  0  0
M  CHG 1  15   1
M  END
> <minimizedAffinity>
-6.58962

$$$$
ZINC000025227221


 27 28  0  0  0  0  0  0  0  0999 V2000
   -8.3105   18.5526   -6.9609 N   0  0  0  0  0  0  0  0  0  0  0  0
   -8.7728   17.7656   -7.9525 C   0  0  0  0  0  0  0  0  0  0  0  0
   -9.9608   17.5195   -8.0295 O   0  0  0  0  0  0  0  0  0  0  0  0
  -10.1865   18.3294    0.8453 H   0  0  0  0  0  0  0  0  0  0  0  0
   -9.7317   21.0285   -3.8603 N   0  0  0  0  0  0  0  0  0  0  0  0
  -10.3560   21.1971   -5.1780 C   0  0  0  0  0  0  0  0  0  0  0  0
   -9.4481   20.6025   -6.2567 C   0  0  0  0  0  0  0  0  0  0  0  0
   -9.2396   19.1115   -5.9758 C   0  0  0  0  0  0  0  0  0  0  0  0
   -8.6570   18.9437   -4.5695 C   0  0  0  0  0  0  0  0  0  0  0  0
   -9.5957   19.5994   -3.5543 C   0  0  0  0  0  0  0  0  0  0  0  0
   -8.5635   22.0539    0.2629 H   0  0  0  0  0  0  0  0  0  0  0  0
  -10.5693   21.6692   -2.8376 C   0  0  0  0  0  0  0  0  0  0  0  0
   -8.9792   25.1429   -2.5935 C   0  0  0  0  0  0  0  0  0  0  0  0
   -9.1756   23.6919   -2.5466 N   0  0  0  0  0  0  0  0  0  0  0  0
  -10.3674   23.1619   -2.8859 C   0  0  0  0  0  0  0  0  0  0  0  0
  -11.2773   23.8861   -3.2300 O   0  0  0  0  0  0  0  0  0  0  0  0
  -10.3063   25.3428   -2.3687 H   0  0  0  0  0  0  0  0  0  0  0  0
   -7.8356   17.2017   -8.9463 C   0  0  0  0  0  0  0  0  0  0  0  0
   -7.3389   18.0040   -9.9750 C   0  0  0  0  0  0  0  0  0  0  0  0
   -6.4645   17.4722  -10.8996 C   0  0  0  0  0  0  0  0  0  0  0  0
   -6.0796   16.1449  -10.8091 C   0  0  0  0  0  0  0  0  0  0  0  0
   -4.9786   15.4825  -11.9765 Cl  0  0  0  0  0  0  0  0  0  0  0  0
   -6.5692   15.3438   -9.7904 C   0  0  0  0  0  0  0  0  0  0  0  0
   -7.4390   15.8659   -8.8567 C   0  0  0  0  0  0  0  0  0  0  0  0
   -7.9608   15.0088   -7.7686 N   0  0  0  0  0  0  0  0  0  0  0  0
   -7.3923   14.9778   -6.6918 O   0  0  0  0  0  0  0  0  0  0  0  0
   -8.9587   14.3345   -7.9499 O   0  0  0  0  0  0  0  0  0  0  0  0
 13 14  1  0  0  0
 14 15  1  0  0  0
 15 16  2  0  0  0
 15 12  1  0  0  0
 12  5  1  0  0  0
  5 10  1  0  0  0
  5  6  1  0  0  0
  6  7  1  0  0  0
  7  8  1  0  0  0
  8  1  1  0  0  0
  8  9  1  0  0  0
  1  2  1  0  0  0
  2  3  2  0  0  0
  2 18  1  0  0  0
 18 24  1  0  0  0
 18 19  2  0  0  0
 19 20  1  0  0  0
 20 21  2  0  0  0
 21 22  1  0  0  0
 21 23  1  0  0  0
 23 24  2  0  0  0
 24 25  1  0  0  0
 25 26  1  0  0  0
 25 27  2  0  0  0
  9 10  1  0  0  0
 14 17  1  0  0  0
  5 11  1  0  0  0
  1  4  1  0  0  0
M  CHG 1   5   1
M  CHG 1  25   1
M  CHG 1  26  -1
M  END
> <minimizedAffinity>
-6.97468

$$$$
ZINC000282781278


 28 30  0  0  0  0  0  0  0  0999 V2000
   -8.6163   18.1602   -5.3923 C   0  0  0  0  0  0  0  0  0  0  0  0
   -8.7163   17.3392   -6.6795 C   0  0  0  0  0  0  0  0  0  0  0  0
   -9.5319   18.1133   -7.7170 C   0  0  0  0  0  0  0  0  0  0  0  0
   -7.3122   17.0736   -7.2265 C   0  0  0  0  0  0  0  0  0  0  0  0
   -7.4050   16.2839   -8.4603 N   0  0  0  0  0  0  0  0  0  0  0  0
   -7.9977   14.9730   -8.1692 C   0  0  0  0  0  0  0  0  0  0  0  0
   -9.4282   15.1578   -7.6584 C   0  0  0  0  0  0  0  0  0  0  0  0
   -9.4034   16.0033   -6.3819 C   0  0  0  0  0  0  0  0  0  0  0  0
   -8.7149   17.3445   -6.6763 H   0  0  0  0  0  0  0  0  0  0  0  0
   -8.6628   15.2918   -5.3372 N   0  0  0  0  0  0  0  0  0  0  0  0
   -9.2940   14.8966   -4.2138 C   0  0  0  0  0  0  0  0  0  0  0  0
  -10.4534   15.2106   -4.0255 O   0  0  0  0  0  0  0  0  0  0  0  0
   -8.6399   14.1536   -3.2992 N   0  0  0  0  0  0  0  0  0  0  0  0
   -9.3386   13.6139   -2.1219 C   0  0  0  0  0  0  0  0  0  0  0  0
   -9.0335   12.1148   -2.0238 C   0  0  0  0  0  0  0  0  0  0  0  0
   -7.6180   11.9187   -2.0672 O   0  0  0  0  0  0  0  0  0  0  0  0
   -7.0051   12.3467   -3.2858 C   0  0  0  0  0  0  0  0  0  0  0  0
   -7.2076   13.8529   -3.4516 C   0  0  0  0  0  0  0  0  0  0  0  0
   -8.4313   16.8585   -7.2084 H   0  0  0  0  0  0  0  0  0  0  0  0
   -5.5653   12.0430   -3.2451 C   0  0  0  0  0  0  0  0  0  0  0  0
   -4.4542   11.8085   -3.2136 N   0  0  0  0  0  0  0  0  0  0  0  0
   -6.0608   16.0964   -9.0223 C   0  0  0  0  0  0  0  0  0  0  0  0
   -6.0216   16.6460  -10.4250 C   0  0  0  0  0  0  0  0  0  0  0  0
   -5.2923   15.9951  -11.4022 C   0  0  0  0  0  0  0  0  0  0  0  0
   -5.2563   16.4993  -12.6888 C   0  0  0  0  0  0  0  0  0  0  0  0
   -5.9501   17.6541  -12.9982 C   0  0  0  0  0  0  0  0  0  0  0  0
   -6.6802   18.3046  -12.0212 C   0  0  0  0  0  0  0  0  0  0  0  0
   -6.7196   17.7981  -10.7356 C   0  0  0  0  0  0  0  0  0  0  0  0
  1  2  1  0  0  0
  2  8  1  0  0  0
  2  3  1  0  0  0
  2  4  1  0  0  0
  4  5  1  0  0  0
  5 22  1  0  0  0
  5  6  1  0  0  0
 22 23  1  0  0  0
 23 28  1  0  0  0
 23 24  2  0  0  0
 24 25  1  0  0  0
 25 26  2  0  0  0
 26 27  1  0  0  0
 27 28  2  0  0  0
  6  7  1  0  0  0
  7  8  1  0  0  0
  8 10  1  0  0  0
 10 11  1  0  0  0
 11 12  2  0  0  0
 11 13  1  0  0  0
 13 18  1  0  0  0
 13 14  1  0  0  0
 14 15  1  0  0  0
 15 16  1  0  0  0
 16 17  1  0  0  0
 17 20  1  0  0  0
 17 18  1  0  0  0
 20 21  3  0  0  0
  5  9  1  0  0  0
 10 19  1  0  0  0
M  CHG 1   5   1
M  END
> <minimizedAffinity>
-7.09119

$$$$
ZINC000169678480


 31 34  0  0  0  0  0  0  0  0999 V2000
   -8.1021   19.4396   -0.5137 N   0  0  0  0  0  0  0  0  0  0  0  0
   -8.5621   19.4015   -1.7724 C   0  0  0  0  0  0  0  0  0  0  0  0
   -7.7706   19.3085   -2.6861 O   0  0  0  0  0  0  0  0  0  0  0  0
  -10.0299   19.4703   -2.0829 C   0  0  0  0  0  0  0  0  0  0  0  0
  -10.4526   18.2115   -2.8458 C   0  0  0  0  0  0  0  0  0  0  0  0
   -9.9182   18.2619   -4.2548 C   0  0  0  0  0  0  0  0  0  0  0  0
   -9.9167   17.0903   -4.9949 C   0  0  0  0  0  0  0  0  0  0  0  0
   -9.4453   17.0815   -6.2928 C   0  0  0  0  0  0  0  0  0  0  0  0
   -8.9707   18.2489   -6.8618 C   0  0  0  0  0  0  0  0  0  0  0  0
   -8.9661   19.4179   -6.1312 C   0  0  0  0  0  0  0  0  0  0  0  0
   -9.4381   19.4325   -4.8181 C   0  0  0  0  0  0  0  0  0  0  0  0
   -9.3932   20.6375   -4.1236 N   0  0  0  0  0  0  0  0  0  0  0  0
   -9.6020   21.7903   -5.0089 C   0  0  0  0  0  0  0  0  0  0  0  0
   -9.3874   23.0800   -4.2121 C   0  0  0  0  0  0  0  0  0  0  0  0
  -10.3223   23.1229   -3.0805 N   0  0  0  0  0  0  0  0  0  0  0  0
  -11.7014   23.0741   -3.5840 C   0  0  0  0  0  0  0  0  0  0  0  0
  -10.0847   21.9730   -2.1965 C   0  0  0  0  0  0  0  0  0  0  0  0
  -10.3087   20.6796   -2.9817 C   0  0  0  0  0  0  0  0  0  0  0  0
  -10.8355   19.5871   -0.8205 C   0  0  0  0  0  0  0  0  0  0  0  0
  -12.0436   19.6568   -0.8970 O   0  0  0  0  0  0  0  0  0  0  0  0
  -10.2570   19.6158    0.3885 N   0  0  0  0  0  0  0  0  0  0  0  0
   -8.9263   19.5381    0.5402 C   0  0  0  0  0  0  0  0  0  0  0  0
   -8.2626   19.5778    2.1178 S   0  0  0  0  0  0  0  0  0  0  0  0
   -6.2415   17.9204   -0.1356 H   0  0  0  0  0  0  0  0  0  0  0  0
   -6.2415   17.9204   -0.1356 H   0  0  0  0  0  0  0  0  0  0  0  0
   -9.4483   15.8244   -7.0738 N   0  0  0  0  0  0  0  0  0  0  0  0
   -9.5116   14.7515   -6.5007 O   0  0  0  0  0  0  0  0  0  0  0  0
   -9.3875   15.8625   -8.2897 O   0  0  0  0  0  0  0  0  0  0  0  0
   -6.6574   19.3653   -0.2821 C   0  0  0  0  0  0  0  0  0  0  0  0
   -4.9453   17.6248   -0.3033 C   0  0  0  0  0  0  0  0  0  0  0  0
   -6.2208   17.9230   -0.2903 C   0  0  0  0  0  0  0  0  0  0  0  0
 30 31  2  0  0  0
 31 29  1  0  0  0
 29  1  1  0  0  0
  1 22  1  0  0  0
  1  2  1  0  0  0
  2  3  2  0  0  0
  4  2  1  0  0  0
  4 18  1  0  0  0
  4  5  1  0  0  0
  4 19  1  0  0  0
  5  6  1  0  0  0
  6 11  2  0  0  0
  6  7  1  0  0  0
  7  8  2  0  0  0
  8 26  1  0  0  0
  8  9  1  0  0  0
 26 27  1  0  0  0
 26 28  2  0  0  0
  9 10  2  0  0  0
 10 11  1  0  0  0
 11 12  1  0  0  0
 12 18  1  0  0  0
 12 13  1  0  0  0
 13 14  1  0  0  0
 14 15  1  0  0  0
 15 16  1  0  0  0
 15 17  1  0  0  0
 17 18  1  0  0  0
 19 20  2  0  0  0
 19 21  1  0  0  0
 21 22  1  0  0  0
 22 23  2  0  0  0
 15 24  1  0  0  0
 21 25  1  0  0  0
M  CHG 1  15   1
M  CHG 1  26   1
M  CHG 1  27  -1
M  END
> <minimizedAffinity>
-5.89406

$$$$
ZINC000005215224


 26 27  0  0  0  0  0  0  0  0999 V2000
   -7.2315   16.1040  -10.3816 C   0  0  0  0  0  0  0  0  0  0  0  0
   -6.9253   14.8863  -10.8233 N   0  0  0  0  0  0  0  0  0  0  0  0
   -6.3637   14.7167  -12.0109 C   0  0  0  0  0  0  0  0  0  0  0  0
   -6.0855   15.7414  -12.8023 N   0  0  0  0  0  0  0  0  0  0  0  0
   -6.3637   16.9880  -12.4269 C   0  0  0  0  0  0  0  0  0  0  0  0
   -6.0692   18.0549  -13.2614 N   0  0  0  0  0  0  0  0  0  0  0  0
   -6.9593   17.2053  -11.1882 C   0  0  0  0  0  0  0  0  0  0  0  0
  -10.2668   16.0196   -7.5011 H   0  0  0  0  0  0  0  0  0  0  0  0
  -10.2668   16.0196   -7.5011 H   0  0  0  0  0  0  0  0  0  0  0  0
   -9.0168   15.7584   -5.1343 C   0  0  0  0  0  0  0  0  0  0  0  0
   -8.3709   15.5330   -6.4343 N   0  0  0  0  0  0  0  0  0  0  0  0
   -7.4868   16.6644   -6.7440 C   0  0  0  0  0  0  0  0  0  0  0  0
   -6.7994   16.4214   -8.0895 C   0  0  0  0  0  0  0  0  0  0  0  0
   -7.8189   16.2727   -9.1376 N   0  0  0  0  0  0  0  0  0  0  0  0
   -8.7269   15.1591   -8.8284 C   0  0  0  0  0  0  0  0  0  0  0  0
   -9.3984   15.4129   -7.4770 C   0  0  0  0  0  0  0  0  0  0  0  0
   -9.9191   15.3958   -7.2523 H   0  0  0  0  0  0  0  0  0  0  0  0
   -7.2850   18.5760  -10.7340 N   0  0  0  0  0  0  0  0  0  0  0  0
   -8.3634   19.0695  -11.0117 O   0  0  0  0  0  0  0  0  0  0  0  0
   -6.4745   19.2105  -10.0827 O   0  0  0  0  0  0  0  0  0  0  0  0
   -6.0602   13.4353  -12.4359 N   0  0  0  0  0  0  0  0  0  0  0  0
   -8.2146   19.2221  -15.6912 H   0  0  0  0  0  0  0  0  0  0  0  0
   -5.2653   12.5493  -11.5820 C   0  0  0  0  0  0  0  0  0  0  0  0
   -6.1599   11.4401  -11.0249 C   0  0  0  0  0  0  0  0  0  0  0  0
   -7.1301   11.0722  -12.0073 O   0  0  0  0  0  0  0  0  0  0  0  0
   -8.5096   19.5403  -14.8546 H   0  0  0  0  0  0  0  0  0  0  0  0
 10 11  1  0  0  0
 11 16  1  0  0  0
 11 12  1  0  0  0
 12 13  1  0  0  0
 13 14  1  0  0  0
 14  1  1  0  0  0
 14 15  1  0  0  0
  1  7  1  0  0  0
  1  2  2  0  0  0
  2  3  1  0  0  0
  3 21  1  0  0  0
  3  4  2  0  0  0
 21 23  1  0  0  0
 23 24  1  0  0  0
 24 25  1  0  0  0
  4  5  1  0  0  0
  5  6  1  0  0  0
  5  7  2  0  0  0
  7 18  1  0  0  0
 18 19  1  0  0  0
 18 20  2  0  0  0
 15 16  1  0  0  0
 11 17  1  0  0  0
 21 22  1  0  0  0
 25 26  1  0  0  0
  6  8  1  0  0  0
  6  9  1  0  0  0
M  CHG 1  11   1
M  CHG 1  18   1
M  CHG 1  19  -1
M  END
> <minimizedAffinity>
-6.18530

$$$$
ZINC000012764006


 31 33  0  0  0  0  0  0  0  0999 V2000
   -5.9611   12.9755  -10.2655 S   0  0  0  0  0  0  0  0  0  0  0  0
   -6.9446   14.9938   -8.5956 N   0  0  0  0  0  0  0  0  0  0  0  0
   -7.1610   13.8622   -9.3282 C   0  0  0  0  0  0  0  0  0  0  0  0
   -8.4322   13.5595   -9.2018 N   0  0  0  0  0  0  0  0  0  0  0  0
   -9.0132   14.4213   -8.4458 N   0  0  0  0  0  0  0  0  0  0  0  0
   -8.1539   15.3143   -8.0431 C   0  0  0  0  0  0  0  0  0  0  0  0
   -8.4416   16.4884   -7.1433 C   0  0  0  0  0  0  0  0  0  0  0  0
   -9.4702   17.4150   -7.8148 C   0  0  0  0  0  0  0  0  0  0  0  0
   -9.9623   18.3979   -6.7214 C   0  0  0  0  0  0  0  0  0  0  0  0
  -10.1764   17.3024   -5.2676 S   0  0  0  0  0  0  0  0  0  0  0  0
   -9.6507   17.9434   -4.1135 O   0  0  0  0  0  0  0  0  0  0  0  0
  -11.5033   16.7941   -5.2522 O   0  0  0  0  0  0  0  0  0  0  0  0
   -9.0289   15.9872   -5.8089 C   0  0  0  0  0  0  0  0  0  0  0  0
   -5.6785   15.7121   -8.4305 C   0  0  0  0  0  0  0  0  0  0  0  0
   -5.5890   14.3870   -6.3817 C   0  0  0  0  0  0  0  0  0  0  0  0
   -4.9812   15.2219   -7.1876 C   0  0  0  0  0  0  0  0  0  0  0  0
   -6.6831   13.1214  -11.9188 C   0  0  0  0  0  0  0  0  0  0  0  0
   -7.9012   12.2018  -12.0263 C   0  0  0  0  0  0  0  0  0  0  0  0
   -7.1076   14.5475  -12.1575 C   0  0  0  0  0  0  0  0  0  0  0  0
   -8.2664   14.8010  -12.4102 O   0  0  0  0  0  0  0  0  0  0  0  0
   -6.1995   15.5412  -12.0901 N   0  0  0  0  0  0  0  0  0  0  0  0
   -9.7516    9.5385   -9.1113 H   0  0  0  0  0  0  0  0  0  0  0  0
   -6.5724   16.8526  -12.4063 C   0  0  0  0  0  0  0  0  0  0  0  0
   -6.4888   17.3012  -13.7191 C   0  0  0  0  0  0  0  0  0  0  0  0
   -6.8557   18.5958  -14.0384 C   0  0  0  0  0  0  0  0  0  0  0  0
   -7.3074   19.4522  -13.0564 C   0  0  0  0  0  0  0  0  0  0  0  0
   -7.3961   19.0115  -11.7317 C   0  0  0  0  0  0  0  0  0  0  0  0
   -7.0301   17.7015  -11.4113 C   0  0  0  0  0  0  0  0  0  0  0  0
   -7.8782   19.9221  -10.6806 C   0  0  0  0  0  0  0  0  0  0  0  0
   -7.4982   19.6812   -9.2424 C   0  0  0  0  0  0  0  0  0  0  0  0
   -8.5812   20.8662  -10.9720 O   0  0  0  0  0  0  0  0  0  0  0  0
 15 16  2  0  0  0
 16 14  1  0  0  0
 14  2  1  0  0  0
  2  6  1  0  0  0
  2  3  1  0  0  0
  3  1  1  0  0  0
  3  4  2  0  0  0
  1 17  1  0  0  0
 17 18  1  0  0  0
 17 19  1  0  0  0
 19 20  2  0  0  0
 19 21  1  0  0  0
 21 23  1  0  0  0
 23 28  1  0  0  0
 23 24  2  0  0  0
 24 25  1  0  0  0
 25 26  2  0  0  0
 26 27  1  0  0  0
 27 29  1  0  0  0
 27 28  2  0  0  0
 29 30  1  0  0  0
 29 31  2  0  0  0
  4  5  1  0  0  0
  5  6  2  0  0  0
  6  7  1  0  0  0
  7 13  1  0  0  0
  7  8  1  0  0  0
  8  9  1  0  0  0
  9 10  1  0  0  0
 10 11  2  0  0  0
 10 12  2  0  0  0
 10 13  1  0  0  0
 21 22  1  0  0  0
M  END
> <minimizedAffinity>
-8.17023

$$$$
ZINC000018156806


 35 39  0  0  0  0  0  0  0  0999 V2000
   -9.7674   21.2854   -5.1168 N   0  0  0  0  0  0  0  0  0  0  0  0
   -9.7639   19.9372   -5.0715 C   0  0  0  0  0  0  0  0  0  0  0  0
   -9.9903   19.2418   -4.1005 O   0  0  0  0  0  0  0  0  0  0  0  0
   -9.4321   19.4715   -6.4340 C   0  0  0  0  0  0  0  0  0  0  0  0
   -9.2229   18.3775   -7.2570 C   0  0  0  0  0  0  0  0  0  0  0  0
   -8.9221   18.8291   -8.5302 N   0  0  0  0  0  0  0  0  0  0  0  0
   -8.9388   20.2305   -8.5228 N   0  0  0  0  0  0  0  0  0  0  0  0
   -9.2577   20.6469   -7.2123 C   0  0  0  0  0  0  0  0  0  0  0  0
   -9.4700   21.7096   -6.4000 C   0  0  0  0  0  0  0  0  0  0  0  0
   -9.4018   23.0057   -6.7893 O   0  0  0  0  0  0  0  0  0  0  0  0
  -10.8736   21.9004   -0.4909 H   0  0  0  0  0  0  0  0  0  0  0  0
  -10.8736   21.9004   -0.4909 H   0  0  0  0  0  0  0  0  0  0  0  0
  -10.8736   21.9004   -0.4909 H   0  0  0  0  0  0  0  0  0  0  0  0
  -11.5941   23.4058   -2.7247 C   0  0  0  0  0  0  0  0  0  0  0  0
  -10.5631   23.7951   -1.8816 C   0  0  0  0  0  0  0  0  0  0  0  0
   -9.2743   23.3524   -2.1129 C   0  0  0  0  0  0  0  0  0  0  0  0
   -9.0086   22.5212   -3.1836 C   0  0  0  0  0  0  0  0  0  0  0  0
  -10.0369   22.1283   -4.0309 C   0  0  0  0  0  0  0  0  0  0  0  0
  -11.3321   22.5675   -3.7973 C   0  0  0  0  0  0  0  0  0  0  0  0
  -13.3295   23.7940   -1.1468 C   0  0  0  0  0  0  0  0  0  0  0  0
  -12.8608   23.8415   -2.4959 O   0  0  0  0  0  0  0  0  0  0  0  0
   -9.3065   16.9767   -6.8485 C   0  0  0  0  0  0  0  0  0  0  0  0
  -10.3872   16.4777   -6.6082 O   0  0  0  0  0  0  0  0  0  0  0  0
   -8.0515   16.1515   -6.7254 C   0  0  0  0  0  0  0  0  0  0  0  0
   -7.5833   15.7726   -8.0609 N   0  0  0  0  0  0  0  0  0  0  0  0
   -6.5579   16.3606   -8.7031 C   0  0  0  0  0  0  0  0  0  0  0  0
   -5.8841   17.2756   -8.2743 O   0  0  0  0  0  0  0  0  0  0  0  0
   -6.3879   15.7064  -10.0175 C   0  0  0  0  0  0  0  0  0  0  0  0
   -5.5180   15.8830  -11.0810 C   0  0  0  0  0  0  0  0  0  0  0  0
   -5.6311   15.0762  -12.2031 C   0  0  0  0  0  0  0  0  0  0  0  0
   -6.6052   14.0982  -12.2671 C   0  0  0  0  0  0  0  0  0  0  0  0
   -7.4828   13.9099  -11.2104 C   0  0  0  0  0  0  0  0  0  0  0  0
   -7.3816   14.7084  -10.0830 C   0  0  0  0  0  0  0  0  0  0  0  0
   -8.1184   14.7871   -8.8039 C   0  0  0  0  0  0  0  0  0  0  0  0
   -9.0518   14.0813   -8.4789 O   0  0  0  0  0  0  0  0  0  0  0  0
 20 21  1  0  0  0
 21 14  1  0  0  0
 14 19  2  0  0  0
 14 15  1  0  0  0
 15 16  2  0  0  0
 16 17  1  0  0  0
 17 18  2  0  0  0
 18  1  1  0  0  0
 18 19  1  0  0  0
  1  9  1  0  0  0
  1  2  1  0  0  0
  2  3  2  0  0  0
  2  4  1  0  0  0
  4  8  1  0  0  0
  4  5  2  0  0  0
  5 22  1  0  0  0
  5  6  1  0  0  0
 22 23  2  0  0  0
 22 24  1  0  0  0
 24 25  1  0  0  0
 25 34  1  0  0  0
 25 26  1  0  0  0
 26 27  2  0  0  0
 26 28  1  0  0  0
 28 33  2  0  0  0
 28 29  1  0  0  0
 29 30  2  0  0  0
 30 31  1  0  0  0
 31 32  2  0  0  0
 32 33  1  0  0  0
 33 34  1  0  0  0
 34 35  2  0  0  0
  6  7  1  0  0  0
  7  8  1  0  0  0
  8  9  2  0  0  0
  9 10  1  0  0  0
  6 11  1  0  0  0
  7 12  1  0  0  0
 10 13  1  0  0  0
M  END
> <minimizedAffinity>
-8.66103

$$$$
ZINC000095533617


 29 31  0  0  0  0  0  0  0  0999 V2000
   -7.0301   18.4612  -11.5986 C   0  0  0  0  0  0  0  0  0  0  0  0
   -7.8849   19.4111  -11.8668 N   0  0  0  0  0  0  0  0  0  0  0  0
   -8.4753   19.7904  -10.7897 N   0  0  0  0  0  0  0  0  0  0  0  0
   -8.0242   19.0962   -9.7684 C   0  0  0  0  0  0  0  0  0  0  0  0
   -7.0910   18.2235  -10.2593 N   0  0  0  0  0  0  0  0  0  0  0  0
   -8.4367   13.9997  -14.7112 H   0  0  0  0  0  0  0  0  0  0  0  0
   -8.4484   19.2292   -8.3580 C   0  0  0  0  0  0  0  0  0  0  0  0
   -8.2430   18.1778   -7.4636 C   0  0  0  0  0  0  0  0  0  0  0  0
   -8.6399   18.3054   -6.1496 C   0  0  0  0  0  0  0  0  0  0  0  0
   -9.2438   19.4781   -5.7157 C   0  0  0  0  0  0  0  0  0  0  0  0
   -9.4500   20.5267   -6.6028 C   0  0  0  0  0  0  0  0  0  0  0  0
   -9.0503   20.4088   -7.9166 C   0  0  0  0  0  0  0  0  0  0  0  0
  -10.0938   21.7748   -6.1353 N   0  0  0  0  0  0  0  0  0  0  0  0
  -11.3082   21.8682   -6.1287 O   0  0  0  0  0  0  0  0  0  0  0  0
   -9.4092   22.7086   -5.7571 O   0  0  0  0  0  0  0  0  0  0  0  0
   -9.6336   19.6002   -4.4201 O   0  0  0  0  0  0  0  0  0  0  0  0
  -10.5980   18.6606   -3.9413 C   0  0  0  0  0  0  0  0  0  0  0  0
   -6.1435   17.7534  -12.5906 C   0  0  0  0  0  0  0  0  0  0  0  0
   -6.6998   17.9071  -13.9415 N   0  0  0  0  0  0  0  0  0  0  0  0
   -3.8298   13.9599  -10.5654 H   0  0  0  0  0  0  0  0  0  0  0  0
   -3.8298   13.9599  -10.5654 H   0  0  0  0  0  0  0  0  0  0  0  0
   -7.0301   14.0938  -12.2747 C   0  0  0  0  0  0  0  0  0  0  0  0
   -5.9242   13.6008  -11.5979 C   0  0  0  0  0  0  0  0  0  0  0  0
   -4.8948   14.4528  -11.2462 C   0  0  0  0  0  0  0  0  0  0  0  0
   -4.9666   15.7953  -11.5678 C   0  0  0  0  0  0  0  0  0  0  0  0
   -6.0683   16.2893  -12.2420 C   0  0  0  0  0  0  0  0  0  0  0  0
   -7.0972   15.4406  -12.6014 C   0  0  0  0  0  0  0  0  0  0  0  0
   -9.3270   13.8486  -12.8376 C   0  0  0  0  0  0  0  0  0  0  0  0
   -8.0437   13.2578  -12.6223 O   0  0  0  0  0  0  0  0  0  0  0  0
 28 29  1  0  0  0
 29 22  1  0  0  0
 22 27  2  0  0  0
 22 23  1  0  0  0
 23 24  2  0  0  0
 24 25  1  0  0  0
 25 26  2  0  0  0
 26 18  1  0  0  0
 26 27  1  0  0  0
 18 19  1  0  0  0
 18  1  1  0  0  0
  1  5  1  0  0  0
  1  2  2  0  0  0
  2  3  1  0  0  0
  3  4  2  0  0  0
  4  7  1  0  0  0
  4  5  1  0  0  0
  7 12  1  0  0  0
  7  8  2  0  0  0
  8  9  1  0  0  0
  9 10  2  0  0  0
 10 16  1  0  0  0
 10 11  1  0  0  0
 16 17  1  0  0  0
 11 13  1  0  0  0
 11 12  2  0  0  0
 13 14  1  0  0  0
 13 15  2  0  0  0
 19 20  1  0  0  0
 19 21  1  0  0  0
  5  6  1  0  0  0
M  CHG 1  13   1
M  CHG 1  14  -1
M  END
> <minimizedAffinity>
-8.03230

$$$$
ZINC000004758474


 28 30  0  0  0  0  0  0  0  0999 V2000
   -7.9855   16.5875   -8.6227 C   0  0  0  0  0  0  0  0  0  0  0  0
   -7.8436   15.2918   -9.1210 C   0  0  0  0  0  0  0  0  0  0  0  0
   -8.0756   14.0498   -8.6267 N   0  0  0  0  0  0  0  0  0  0  0  0
   -7.7667   13.1611   -9.5251 C   0  0  0  0  0  0  0  0  0  0  0  0
   -7.3157   13.7757  -10.6560 N   0  0  0  0  0  0  0  0  0  0  0  0
   -7.3522   15.1290  -10.4320 C   0  0  0  0  0  0  0  0  0  0  0  0
   -7.0435   16.2047  -11.1432 N   0  0  0  0  0  0  0  0  0  0  0  0
   -7.1953   17.4143  -10.6280 C   0  0  0  0  0  0  0  0  0  0  0  0
   -6.8635   18.5169  -11.3985 N   0  0  0  0  0  0  0  0  0  0  0  0
   -7.6596   17.6060   -9.3997 N   0  0  0  0  0  0  0  0  0  0  0  0
   -8.4725   16.8087   -7.3304 H   0  0  0  0  0  0  0  0  0  0  0  0
   -8.4725   16.8087   -7.3304 H   0  0  0  0  0  0  0  0  0  0  0  0
   -6.8733   13.1125  -11.8851 C   0  0  0  0  0  0  0  0  0  0  0  0
   -6.7696   11.6870  -11.6776 O   0  0  0  0  0  0  0  0  0  0  0  0
   -5.5258   11.4950  -10.9691 C   0  0  0  0  0  0  0  0  0  0  0  0
   -4.5355   12.4743  -11.6376 C   0  0  0  0  0  0  0  0  0  0  0  0
   -3.7840   11.8096  -12.6550 O   0  0  0  0  0  0  0  0  0  0  0  0
   -5.4435   13.5650  -12.2556 C   0  0  0  0  0  0  0  0  0  0  0  0
   -5.2791   13.6086  -13.6744 O   0  0  0  0  0  0  0  0  0  0  0  0
   -8.9251   16.7324   -7.4522 H   0  0  0  0  0  0  0  0  0  0  0  0
   -8.9251   16.7324   -7.4522 H   0  0  0  0  0  0  0  0  0  0  0  0
   -5.0402   10.0526  -11.1264 C   0  0  0  0  0  0  0  0  0  0  0  0
   -5.2681    9.3380   -9.9100 O   0  0  0  0  0  0  0  0  0  0  0  0
   -6.8883   17.3815   -7.1159 H   0  0  0  0  0  0  0  0  0  0  0  0
   -9.8836   16.4159   -7.2629 C   0  0  0  0  0  0  0  0  0  0  0  0
   -8.4684   16.8043   -7.3288 N   0  0  0  0  0  0  0  0  0  0  0  0
   -8.3346   18.2269   -6.9881 C   0  0  0  0  0  0  0  0  0  0  0  0
   -7.6944   15.9977   -6.3758 C   0  0  0  0  0  0  0  0  0  0  0  0
 25 26  1  0  0  0
 26 27  1  0  0  0
 26 28  1  0  0  0
 26  1  1  0  0  0
  1 10  2  0  0  0
  1  2  1  0  0  0
  2  6  2  0  0  0
  2  3  1  0  0  0
  3  4  2  0  0  0
  4  5  1  0  0  0
  5 13  1  0  0  0
  5  6  1  0  0  0
 13 18  1  0  0  0
 13 14  1  0  0  0
 14 15  1  0  0  0
 15 22  1  0  0  0
 15 16  1  0  0  0
 22 23  1  0  0  0
 16 17  1  0  0  0
 16 18  1  0  0  0
 18 19  1  0  0  0
  6  7  1  0  0  0
  7  8  2  0  0  0
  8  9  1  0  0  0
  8 10  1  0  0  0
 23 24  1  0  0  0
 17 20  1  0  0  0
 19 21  1  0  0  0
  9 11  1  0  0  0
  9 12  1  0  0  0
M  CHG 1  26   1
M  END
> <minimizedAffinity>
-7.26799

$$$$
ZINC000215482144


 28 30  0  0  0  0  0  0  0  0999 V2000
   -7.2743   18.3561  -10.1792 C   0  0  0  0  0  0  0  0  0  0  0  0
   -7.7652   19.5854  -10.5791 C   0  0  0  0  0  0  0  0  0  0  0  0
   -8.5270   20.3422   -9.7099 C   0  0  0  0  0  0  0  0  0  0  0  0
   -8.7999   19.8675   -8.4351 C   0  0  0  0  0  0  0  0  0  0  0  0
   -8.3065   18.6336   -8.0365 C   0  0  0  0  0  0  0  0  0  0  0  0
   -7.5493   17.8786   -8.9111 C   0  0  0  0  0  0  0  0  0  0  0  0
   -6.4435   17.5328  -11.1294 C   0  0  0  0  0  0  0  0  0  0  0  0
   -6.7765   13.3509  -11.8739 C   0  0  0  0  0  0  0  0  0  0  0  0
   -7.9679   14.2657  -12.1722 C   0  0  0  0  0  0  0  0  0  0  0  0
   -7.4772   15.7100  -12.2933 C   0  0  0  0  0  0  0  0  0  0  0  0
   -6.8445   16.1227  -11.0347 N   0  0  0  0  0  0  0  0  0  0  0  0
   -5.6589   15.2960  -10.7787 C   0  0  0  0  0  0  0  0  0  0  0  0
   -6.0797   13.8359  -10.5993 C   0  0  0  0  0  0  0  0  0  0  0  0
   -7.2493   11.9742  -11.6836 H   0  0  0  0  0  0  0  0  0  0  0  0
   -7.6183   10.9064  -11.5313 N   0  0  0  0  0  0  0  0  0  0  0  0
   -7.2517   11.9711  -11.6805 C   0  0  0  0  0  0  0  0  0  0  0  0
   -9.5494   20.6098   -7.5784 O   0  0  0  0  0  0  0  0  0  0  0  0
   -9.5532   20.2103   -6.2065 C   0  0  0  0  0  0  0  0  0  0  0  0
  -10.2218   21.2747   -5.3750 C   0  0  0  0  0  0  0  0  0  0  0  0
  -11.2891   21.0490   -4.8451 O   0  0  0  0  0  0  0  0  0  0  0  0
   -9.6336   22.4775   -5.2205 N   0  0  0  0  0  0  0  0  0  0  0  0
   -4.4203   11.6807   -6.5309 H   0  0  0  0  0  0  0  0  0  0  0  0
  -10.2835   23.5122   -4.4123 C   0  0  0  0  0  0  0  0  0  0  0  0
   -9.5937   24.8563   -4.6540 C   0  0  0  0  0  0  0  0  0  0  0  0
   -9.8964   25.3665   -6.0854 C   0  0  0  0  0  0  0  0  0  0  0  0
   -9.7025   26.8962   -5.9003 C   0  0  0  0  0  0  0  0  0  0  0  0
  -10.2012   27.1173   -4.4561 C   0  0  0  0  0  0  0  0  0  0  0  0
  -10.1310   25.8575   -3.7752 O   0  0  0  0  0  0  0  0  0  0  0  0
 15 16  3  0  0  0
 16  8  1  0  0  0
  8 13  1  0  0  0
  8  9  1  0  0  0
  9 10  1  0  0  0
 10 11  1  0  0  0
 11  7  1  0  0  0
 11 12  1  0  0  0
  7  1  1  0  0  0
  1  6  1  0  0  0
  1  2  2  0  0  0
  2  3  1  0  0  0
  3  4  2  0  0  0
  4 17  1  0  0  0
  4  5  1  0  0  0
 17 18  1  0  0  0
 18 19  1  0  0  0
 19 20  2  0  0  0
 19 21  1  0  0  0
 21 23  1  0  0  0
 23 24  1  0  0  0
 24 28  1  0  0  0
 24 25  1  0  0  0
 25 26  1  0  0  0
 26 27  1  0  0  0
 27 28  1  0  0  0
  5  6  2  0  0  0
 12 13  1  0  0  0
 11 14  1  0  0  0
 21 22  1  0  0  0
M  CHG 1  11   1
M  END
> <minimizedAffinity>
-7.88430

$$$$
ZINC000029972327


 25 26  0  0  0  0  0  0  0  0999 V2000
   -8.8140   15.7902   -7.1870 S   0  0  0  0  0  0  0  0  0  0  0  0
  -10.1578   16.2517   -7.1925 O   0  0  0  0  0  0  0  0  0  0  0  0
   -8.3720   14.6938   -6.3984 O   0  0  0  0  0  0  0  0  0  0  0  0
   -6.7377   15.9212  -12.0230 C   0  0  0  0  0  0  0  0  0  0  0  0
   -7.5303   15.4772  -10.8736 N   0  0  0  0  0  0  0  0  0  0  0  0
   -7.5812   16.0886   -9.6650 C   0  0  0  0  0  0  0  0  0  0  0  0
   -8.4172   15.3935   -8.8573 C   0  0  0  0  0  0  0  0  0  0  0  0
   -8.9100   14.3054   -9.5844 C   0  0  0  0  0  0  0  0  0  0  0  0
   -8.3518   14.3731  -10.8432 C   0  0  0  0  0  0  0  0  0  0  0  0
   -8.5842   13.4348  -11.9463 C   0  0  0  0  0  0  0  0  0  0  0  0
   -7.8208   12.3304  -12.0638 N   0  0  0  0  0  0  0  0  0  0  0  0
   -9.4663   13.6537  -12.7557 O   0  0  0  0  0  0  0  0  0  0  0  0
   -9.2082   15.2743  -10.5268 H   0  0  0  0  0  0  0  0  0  0  0  0
   -9.2082   15.2743  -10.5268 H   0  0  0  0  0  0  0  0  0  0  0  0
   -7.8765   17.0851   -6.7547 N   0  0  0  0  0  0  0  0  0  0  0  0
  -11.9076   15.8665   -4.6669 H   0  0  0  0  0  0  0  0  0  0  0  0
   -8.4455   18.3569   -6.6556 C   0  0  0  0  0  0  0  0  0  0  0  0
   -8.6353   19.1255   -7.7970 C   0  0  0  0  0  0  0  0  0  0  0  0
   -9.1985   20.3824   -7.6954 C   0  0  0  0  0  0  0  0  0  0  0  0
   -9.5729   20.8761   -6.4592 C   0  0  0  0  0  0  0  0  0  0  0  0
   -9.3854   20.1136   -5.3210 C   0  0  0  0  0  0  0  0  0  0  0  0
   -8.8280   18.8536   -5.4160 C   0  0  0  0  0  0  0  0  0  0  0  0
  -10.1873   22.2481   -6.3522 C   0  0  0  0  0  0  0  0  0  0  0  0
  -11.2890   22.2176   -5.3764 C   0  0  0  0  0  0  0  0  0  0  0  0
  -12.1391   22.1942   -4.6233 N   0  0  0  0  0  0  0  0  0  0  0  0
  4  5  1  0  0  0
  5  9  1  0  0  0
  5  6  1  0  0  0
  6  7  2  0  0  0
  7  1  1  0  0  0
  7  8  1  0  0  0
  1  2  2  0  0  0
  1  3  2  0  0  0
  1 15  1  0  0  0
 15 17  1  0  0  0
 17 22  1  0  0  0
 17 18  2  0  0  0
 18 19  1  0  0  0
 19 20  2  0  0  0
 20 23  1  0  0  0
 20 21  1  0  0  0
 23 24  1  0  0  0
 24 25  3  0  0  0
 21 22  2  0  0  0
  8  9  2  0  0  0
  9 10  1  0  0  0
 10 11  1  0  0  0
 10 12  2  0  0  0
 15 16  1  0  0  0
 11 13  1  0  0  0
 11 14  1  0  0  0
M  END
> <minimizedAffinity>
-7.11326

$$$$
ZINC000012459201


 20 21  0  0  0  0  0  0  0  0999 V2000
   -8.4540   14.8784   -9.1266 C   0  0  0  0  0  0  0  0  0  0  0  0
   -8.5812   16.0703   -8.5988 N   0  0  0  0  0  0  0  0  0  0  0  0
   -9.1470   15.8723   -7.3869 C   0  0  0  0  0  0  0  0  0  0  0  0
   -9.3283   14.5849   -7.2510 N   0  0  0  0  0  0  0  0  0  0  0  0
   -8.9414   14.0025   -8.2422 O   0  0  0  0  0  0  0  0  0  0  0  0
   -9.4972   16.9211   -6.3959 C   0  0  0  0  0  0  0  0  0  0  0  0
   -8.6490   18.0101   -6.2147 C   0  0  0  0  0  0  0  0  0  0  0  0
   -8.9886   18.9806   -5.2866 C   0  0  0  0  0  0  0  0  0  0  0  0
  -10.1667   18.8283   -4.5708 C   0  0  0  0  0  0  0  0  0  0  0  0
  -10.9624   17.7204   -4.8023 C   0  0  0  0  0  0  0  0  0  0  0  0
  -10.6180   16.8153   -5.6947 N   0  0  0  0  0  0  0  0  0  0  0  0
   -7.8733   14.5556  -10.4792 C   0  0  0  0  0  0  0  0  0  0  0  0
   -6.7132   15.4203  -10.7331 N   0  0  0  0  0  0  0  0  0  0  0  0
   -6.0496   17.2356  -12.1257 H   0  0  0  0  0  0  0  0  0  0  0  0
   -5.5185   14.5898  -10.9355 C   0  0  0  0  0  0  0  0  0  0  0  0
   -5.5723   13.9487  -12.3237 C   0  0  0  0  0  0  0  0  0  0  0  0
   -6.9579   16.2275  -11.9357 C   0  0  0  0  0  0  0  0  0  0  0  0
   -6.7468   18.4268  -10.8966 C   0  0  0  0  0  0  0  0  0  0  0  0
   -6.2958   17.5725  -11.7813 C   0  0  0  0  0  0  0  0  0  0  0  0
   -5.1148   17.9346  -12.6445 C   0  0  0  0  0  0  0  0  0  0  0  0
 18 19  2  0  0  0
 19 20  1  0  0  0
 19 17  1  0  0  0
 17 13  1  0  0  0
 13 15  1  0  0  0
 13 12  1  0  0  0
 15 16  1  0  0  0
 12  1  1  0  0  0
  1  5  1  0  0  0
  1  2  2  0  0  0
  2  3  1  0  0  0
  3  6  1  0  0  0
  3  4  2  0  0  0
  6 11  1  0  0  0
  6  7  2  0  0  0
  7  8  1  0  0  0
  8  9  2  0  0  0
  9 10  1  0  0  0
 10 11  2  0  0  0
  4  5  1  0  0  0
 13 14  1  0  0  0
M  CHG 1  13   1
M  END
> <minimizedAffinity>
-6.57404

$$$$
ZINC000001593162


 18 19  0  0  0  0  0  0  0  0999 V2000
   -4.6714   16.6641  -11.9328 O   0  0  0  0  0  0  0  0  0  0  0  0
   -6.0614   16.6097  -12.2232 S   0  0  0  0  0  0  0  0  0  0  0  0
   -6.6175   17.0637  -13.4494 O   0  0  0  0  0  0  0  0  0  0  0  0
   -6.5391   14.9221  -12.0549 C   0  0  0  0  0  0  0  0  0  0  0  0
   -5.6037   13.9737  -11.6838 C   0  0  0  0  0  0  0  0  0  0  0  0
   -5.9758   12.6499  -11.5511 C   0  0  0  0  0  0  0  0  0  0  0  0
   -7.2892   12.2725  -11.7901 C   0  0  0  0  0  0  0  0  0  0  0  0
   -7.6577   10.9709  -11.6598 O   0  0  0  0  0  0  0  0  0  0  0  0
   -8.2258   13.2260  -12.1618 C   0  0  0  0  0  0  0  0  0  0  0  0
   -7.8499   14.5492  -12.2884 C   0  0  0  0  0  0  0  0  0  0  0  0
   -4.6665   16.6049  -12.4722 H   0  0  0  0  0  0  0  0  0  0  0  0
   -6.8724   17.5113  -10.9449 C   0  0  0  0  0  0  0  0  0  0  0  0
   -7.5739   18.6629  -11.2498 C   0  0  0  0  0  0  0  0  0  0  0  0
   -8.2102   19.3705  -10.2472 C   0  0  0  0  0  0  0  0  0  0  0  0
   -8.1450   18.9263   -8.9392 C   0  0  0  0  0  0  0  0  0  0  0  0
   -9.1099   19.9981   -7.4195 I   0  0  0  0  0  0  0  0  0  0  0  0
   -7.4430   17.7743   -8.6345 C   0  0  0  0  0  0  0  0  0  0  0  0
   -6.8117   17.0641   -9.6384 C   0  0  0  0  0  0  0  0  0  0  0  0
  1  2  2  0  0  0
  2  3  2  0  0  0
  2  4  1  0  0  0
  2 12  1  0  0  0
  4 10  1  0  0  0
  4  5  2  0  0  0
  5  6  1  0  0  0
  6  7  2  0  0  0
  7  8  1  0  0  0
  7  9  1  0  0  0
  9 10  2  0  0  0
 12 18  1  0  0  0
 12 13  2  0  0  0
 13 14  1  0  0  0
 14 15  2  0  0  0
 15 16  1  0  0  0
 15 17  1  0  0  0
 17 18  2  0  0  0
  8 11  1  0  0  0
M  END
> <minimizedAffinity>
-7.24098

$$$$
ZINC000097436989


 25 26  0  0  0  0  0  0  0  0999 V2000
   -8.6518   16.8914   -7.0092 N   0  0  0  0  0  0  0  0  0  0  0  0
   -9.1020   16.1437   -8.1914 C   0  0  0  0  0  0  0  0  0  0  0  0
   -8.0489   15.0994   -8.5459 C   0  0  0  0  0  0  0  0  0  0  0  0
   -6.6696   15.7002   -8.7741 C   0  0  0  0  0  0  0  0  0  0  0  0
   -6.3033   16.7591   -7.7443 C   0  0  0  0  0  0  0  0  0  0  0  0
   -7.4487   17.6657   -7.3283 C   0  0  0  0  0  0  0  0  0  0  0  0
   -5.6546   14.5389   -8.5751 C   0  0  0  0  0  0  0  0  0  0  0  0
   -6.0474   13.3885   -9.5019 C   0  0  0  0  0  0  0  0  0  0  0  0
   -6.0891   13.8762  -10.8864 N   0  0  0  0  0  0  0  0  0  0  0  0
   -5.4379   13.2099  -11.8630 C   0  0  0  0  0  0  0  0  0  0  0  0
   -5.4759   13.6175  -13.0046 O   0  0  0  0  0  0  0  0  0  0  0  0
   -6.8478   15.0935  -11.1975 C   0  0  0  0  0  0  0  0  0  0  0  0
   -6.4685   16.1944  -10.2003 C   0  0  0  0  0  0  0  0  0  0  0  0
   -4.6637   11.9593  -11.5347 C   0  0  0  0  0  0  0  0  0  0  0  0
   -3.6691   11.7381  -12.5366 O   0  0  0  0  0  0  0  0  0  0  0  0
  -12.8154   15.2875   -7.4907 H   0  0  0  0  0  0  0  0  0  0  0  0
   -7.2584   17.4580  -10.5127 C   0  0  0  0  0  0  0  0  0  0  0  0
   -6.3555   18.5138  -10.8474 O   0  0  0  0  0  0  0  0  0  0  0  0
  -12.4426   14.8001  -10.4516 H   0  0  0  0  0  0  0  0  0  0  0  0
   -9.7209   17.7589   -6.4980 C   0  0  0  0  0  0  0  0  0  0  0  0
   -9.5483   17.0305   -4.1403 N   0  0  0  0  0  0  0  0  0  0  0  0
  -10.3058   17.1524   -5.2485 C   0  0  0  0  0  0  0  0  0  0  0  0
  -11.4579   16.7739   -5.2402 O   0  0  0  0  0  0  0  0  0  0  0  0
  -10.3013   17.1510   -5.2467 H   0  0  0  0  0  0  0  0  0  0  0  0
  -10.3013   17.1510   -5.2467 H   0  0  0  0  0  0  0  0  0  0  0  0
 21 22  1  0  0  0
 22 23  2  0  0  0
 22 20  1  0  0  0
 20  1  1  0  0  0
  1  6  1  0  0  0
  1  2  1  0  0  0
  2  3  1  0  0  0
  3  4  1  0  0  0
  4 13  1  0  0  0
  4  5  1  0  0  0
  4  7  1  0  0  0
  5  6  1  0  0  0
  7  8  1  0  0  0
  8  9  1  0  0  0
  9 10  1  0  0  0
  9 12  1  0  0  0
 10 11  2  0  0  0
 10 14  1  0  0  0
 14 15  1  0  0  0
 12 13  1  0  0  0
 13 17  1  0  0  0
 17 18  1  0  0  0
 21 24  1  0  0  0
 21 25  1  0  0  0
 15 16  1  0  0  0
 18 19  1  0  0  0
M  END
> <minimizedAffinity>
-7.02417

$$$$
ZINC000072343589


 20 21  0  0  0  0  0  0  0  0999 V2000
   -8.8839   19.3202   -7.2483 C   0  0  0  0  0  0  0  0  0  0  0  0
   -8.5283   18.5494   -6.3821 O   0  0  0  0  0  0  0  0  0  0  0  0
   -8.4038   19.1937   -8.5013 N   0  0  0  0  0  0  0  0  0  0  0  0
   -8.7439   20.0586   -9.6405 C   0  0  0  0  0  0  0  0  0  0  0  0
   -7.9381   19.5535  -10.8560 C   0  0  0  0  0  0  0  0  0  0  0  0
   -6.7614   18.7855  -10.1978 C   0  0  0  0  0  0  0  0  0  0  0  0
   -7.4459   18.1691   -8.9552 C   0  0  0  0  0  0  0  0  0  0  0  0
   -6.2501   17.7429  -11.0910 N   0  0  0  0  0  0  0  0  0  0  0  0
   -6.0826   16.4511  -10.7715 C   0  0  0  0  0  0  0  0  0  0  0  0
   -5.5828   15.8100  -11.8903 C   0  0  0  0  0  0  0  0  0  0  0  0
   -5.4562   16.7855  -12.9067 C   0  0  0  0  0  0  0  0  0  0  0  0
   -5.8599   17.9267  -12.4221 N   0  0  0  0  0  0  0  0  0  0  0  0
   -5.2463   14.3832  -12.0022 C   0  0  0  0  0  0  0  0  0  0  0  0
   -5.4573   13.7851  -13.0485 O   0  0  0  0  0  0  0  0  0  0  0  0
   -4.7554   13.7938  -11.0489 O   0  0  0  0  0  0  0  0  0  0  0  0
  -11.5601   21.6856  -15.7038 H   0  0  0  0  0  0  0  0  0  0  0  0
   -9.8624   20.4192   -6.9237 C   0  0  0  0  0  0  0  0  0  0  0  0
   -9.2134   22.7272   -6.5843 C   0  0  0  0  0  0  0  0  0  0  0  0
   -9.2349   21.3777   -6.0041 N   0  0  0  0  0  0  0  0  0  0  0  0
   -9.9112   21.3762   -4.7000 C   0  0  0  0  0  0  0  0  0  0  0  0
 18 19  1  0  0  0
 19 20  1  0  0  0
 19 17  1  0  0  0
 17  1  1  0  0  0
  1  2  2  0  0  0
  1  3  1  0  0  0
  3  7  1  0  0  0
  3  4  1  0  0  0
  4  5  1  0  0  0
  5  6  1  0  0  0
  6  8  1  0  0  0
  6  7  1  0  0  0
  8 12  1  0  0  0
  8  9  1  0  0  0
  9 10  2  0  0  0
 10 13  1  0  0  0
 10 11  1  0  0  0
 13 14  2  0  0  0
 13 15  1  0  0  0
 11 12  2  0  0  0
 15 16  1  0  0  0
M  END
> <minimizedAffinity>
-6.44314

$$$$
ZINC000225136227


 32 34  0  0  0  0  0  0  0  0999 V2000
   -7.3347   18.3853   -9.6725 C   0  0  0  0  0  0  0  0  0  0  0  0
   -7.1204   18.3674  -11.0428 C   0  0  0  0  0  0  0  0  0  0  0  0
   -6.5490   17.2585  -11.6370 C   0  0  0  0  0  0  0  0  0  0  0  0
   -6.1915   16.1675  -10.8671 C   0  0  0  0  0  0  0  0  0  0  0  0
   -6.4037   16.1830   -9.5008 C   0  0  0  0  0  0  0  0  0  0  0  0
   -6.9698   17.2911   -8.9012 C   0  0  0  0  0  0  0  0  0  0  0  0
   -5.4637   14.7547  -11.6281 S   0  0  0  0  0  0  0  0  0  0  0  0
   -5.6784   14.8964  -13.0256 O   0  0  0  0  0  0  0  0  0  0  0  0
   -4.1734   14.6080  -11.0509 O   0  0  0  0  0  0  0  0  0  0  0  0
   -6.3421   13.4342  -11.1516 N   0  0  0  0  0  0  0  0  0  0  0  0
   -7.7879   13.3518  -11.4126 C   0  0  0  0  0  0  0  0  0  0  0  0
   -8.0830   12.0024  -12.0775 C   0  0  0  0  0  0  0  0  0  0  0  0
   -7.5202   10.9542  -11.2849 O   0  0  0  0  0  0  0  0  0  0  0  0
   -6.0966   11.0098  -11.1665 C   0  0  0  0  0  0  0  0  0  0  0  0
   -5.6987   12.3059  -10.4599 C   0  0  0  0  0  0  0  0  0  0  0  0
   -8.4685   20.4562   -9.9525 C   0  0  0  0  0  0  0  0  0  0  0  0
   -7.8960   19.4749   -9.0855 O   0  0  0  0  0  0  0  0  0  0  0  0
   -7.2004   17.3077   -7.4120 C   0  0  0  0  0  0  0  0  0  0  0  0
   -8.2954   16.3008   -7.0543 C   0  0  0  0  0  0  0  0  0  0  0  0
   -9.4524   17.0234   -6.4139 C   0  0  0  0  0  0  0  0  0  0  0  0
  -10.5515   16.5111   -6.3943 O   0  0  0  0  0  0  0  0  0  0  0  0
   -9.2659   18.2392   -5.8630 N   0  0  0  0  0  0  0  0  0  0  0  0
   -6.9556   13.3683   -6.1191 H   0  0  0  0  0  0  0  0  0  0  0  0
  -10.3907   18.9418   -5.2403 C   0  0  0  0  0  0  0  0  0  0  0  0
   -9.8608   19.9377   -4.2068 C   0  0  0  0  0  0  0  0  0  0  0  0
   -8.5664   19.3978   -3.5951 C   0  0  0  0  0  0  0  0  0  0  0  0
   -9.5866   21.2591   -4.8773 C   0  0  0  0  0  0  0  0  0  0  0  0
   -9.4220   22.4002   -4.1145 C   0  0  0  0  0  0  0  0  0  0  0  0
   -9.1706   23.6124   -4.7295 C   0  0  0  0  0  0  0  0  0  0  0  0
   -9.0833   23.6834   -6.1073 C   0  0  0  0  0  0  0  0  0  0  0  0
   -9.2469   22.5423   -6.8700 C   0  0  0  0  0  0  0  0  0  0  0  0
   -9.4942   21.3293   -6.2547 C   0  0  0  0  0  0  0  0  0  0  0  0
 16 17  1  0  0  0
 17  1  1  0  0  0
  1  6  2  0  0  0
  1  2  1  0  0  0
  2  3  2  0  0  0
  3  4  1  0  0  0
  4  7  1  0  0  0
  4  5  2  0  0  0
  7  8  2  0  0  0
  7  9  2  0  0  0
  7 10  1  0  0  0
 10 15  1  0  0  0
 10 11  1  0  0  0
 11 12  1  0  0  0
 12 13  1  0  0  0
 13 14  1  0  0  0
 14 15  1  0  0  0
  5  6  1  0  0  0
  6 18  1  0  0  0
 18 19  1  0  0  0
 19 20  1  0  0  0
 20 21  2  0  0  0
 20 22  1  0  0  0
 22 24  1  0  0  0
 24 25  1  0  0  0
 25 26  1  0  0  0
 25 27  1  0  0  0
 27 32  1  0  0  0
 27 28  2  0  0  0
 28 29  1  0  0  0
 29 30  2  0  0  0
 30 31  1  0  0  0
 31 32  2  0  0  0
 22 23  1  0  0  0
M  END
> <minimizedAffinity>
-8.11162

$$$$
ZINC000040387496


 30 33  0  0  0  0  0  0  0  0999 V2000
   -8.5207   19.3694   -8.6069 N   0  0  0  0  0  0  0  0  0  0  0  0
   -8.7484   19.6296  -10.0371 C   0  0  0  0  0  0  0  0  0  0  0  0
   -7.5228   19.2923  -10.7797 N   0  0  0  0  0  0  0  0  0  0  0  0
   -6.9405   18.0611  -10.5097 C   0  0  0  0  0  0  0  0  0  0  0  0
   -6.4413   17.3094  -11.4503 N   0  0  0  0  0  0  0  0  0  0  0  0
   -6.9230   17.6817   -9.1742 N   0  0  0  0  0  0  0  0  0  0  0  0
   -8.1300   17.9688   -8.3817 C   0  0  0  0  0  0  0  0  0  0  0  0
   -9.1559   22.5355   -9.8247 H   0  0  0  0  0  0  0  0  0  0  0  0
   -9.1559   22.5355   -9.8247 H   0  0  0  0  0  0  0  0  0  0  0  0
   -5.7589   15.8496  -11.0687 S   0  0  0  0  0  0  0  0  0  0  0  0
   -4.5915   15.7307  -11.8701 O   0  0  0  0  0  0  0  0  0  0  0  0
   -5.7385   15.7747   -9.6499 O   0  0  0  0  0  0  0  0  0  0  0  0
   -6.8687   14.5958  -11.6173 C   0  0  0  0  0  0  0  0  0  0  0  0
   -8.0356   14.9369  -12.2157 C   0  0  0  0  0  0  0  0  0  0  0  0
   -8.9374   13.9707  -12.6621 C   0  0  0  0  0  0  0  0  0  0  0  0
   -8.6883   12.6466  -12.5174 C   0  0  0  0  0  0  0  0  0  0  0  0
   -7.4866   12.2170  -11.9002 C   0  0  0  0  0  0  0  0  0  0  0  0
   -7.0258   11.0022  -11.6487 N   0  0  0  0  0  0  0  0  0  0  0  0
   -5.6424   11.1091  -10.9458 S   0  0  0  0  0  0  0  0  0  0  0  0
   -5.4826   12.6552  -10.8857 N   0  0  0  0  0  0  0  0  0  0  0  0
   -6.5395   13.2286  -11.4384 C   0  0  0  0  0  0  0  0  0  0  0  0
   -9.7060   19.7196   -7.8129 C   0  0  0  0  0  0  0  0  0  0  0  0
  -10.3520   20.5636   -5.5952 N   0  0  0  0  0  0  0  0  0  0  0  0
  -10.8171   21.9538   -5.4033 C   0  0  0  0  0  0  0  0  0  0  0  0
   -9.6230   22.8352   -5.8470 C   0  0  0  0  0  0  0  0  0  0  0  0
   -9.0652   22.0260   -7.0474 C   0  0  0  0  0  0  0  0  0  0  0  0
   -9.2827   20.5652   -6.6102 C   0  0  0  0  0  0  0  0  0  0  0  0
   -8.7625   19.7081   -4.4381 H   0  0  0  0  0  0  0  0  0  0  0  0
   -8.6854   19.0624   -4.6123 C   0  0  0  0  0  0  0  0  0  0  0  0
   -9.8292   20.0378   -4.3271 C   0  0  0  0  0  0  0  0  0  0  0  0
 29 30  1  0  0  0
 30 23  1  0  0  0
 23 27  1  0  0  0
 23 24  1  0  0  0
 24 25  1  0  0  0
 25 26  1  0  0  0
 26 27  1  0  0  0
 27 22  1  0  0  0
 22  1  1  0  0  0
  1  7  1  0  0  0
  1  2  1  0  0  0
  2  3  1  0  0  0
  3  4  1  0  0  0
  4  5  2  0  0  0
  4  6  1  0  0  0
  5 10  1  0  0  0
 10 11  2  0  0  0
 10 12  2  0  0  0
 10 13  1  0  0  0
 13 21  1  0  0  0
 13 14  2  0  0  0
 14 15  1  0  0  0
 15 16  2  0  0  0
 16 17  1  0  0  0
 17 21  1  0  0  0
 17 18  2  0  0  0
 18 19  1  0  0  0
 19 20  1  0  0  0
 20 21  2  0  0  0
  6  7  1  0  0  0
 23 28  1  0  0  0
  3  8  1  0  0  0
  6  9  1  0  0  0
M  CHG 1  23   1
M  END
> <minimizedAffinity>
-8.23911

$$$$
ZINC000096079902


 28 30  0  0  0  0  0  0  0  0999 V2000
   -8.0401   17.4415   -7.6168 C   0  0  0  0  0  0  0  0  0  0  0  0
   -6.7679   16.5913   -7.5873 C   0  0  0  0  0  0  0  0  0  0  0  0
   -6.6560   15.8399   -8.9186 C   0  0  0  0  0  0  0  0  0  0  0  0
   -5.4440   14.9076   -8.8764 C   0  0  0  0  0  0  0  0  0  0  0  0
   -5.3131   14.1860  -10.2216 C   0  0  0  0  0  0  0  0  0  0  0  0
   -6.5841   13.5127  -10.5217 N   0  0  0  0  0  0  0  0  0  0  0  0
   -6.6121   12.1966  -10.8105 C   0  0  0  0  0  0  0  0  0  0  0  0
   -7.6503   11.5728  -10.7040 O   0  0  0  0  0  0  0  0  0  0  0  0
   -5.4893   11.5720  -11.2173 N   0  0  0  0  0  0  0  0  0  0  0  0
   -5.4830   10.1177  -11.3938 C   0  0  0  0  0  0  0  0  0  0  0  0
   -4.2751   12.3473  -11.4832 C   0  0  0  0  0  0  0  0  0  0  0  0
   -7.8242   14.3005  -10.5006 C   0  0  0  0  0  0  0  0  0  0  0  0
   -7.9269   15.0225   -9.1532 C   0  0  0  0  0  0  0  0  0  0  0  0
   -6.4940   16.7921   -9.9689 O   0  0  0  0  0  0  0  0  0  0  0  0
   -7.3449   17.8503  -10.0069 C   0  0  0  0  0  0  0  0  0  0  0  0
   -7.4453   18.5788  -11.1877 C   0  0  0  0  0  0  0  0  0  0  0  0
   -8.2932   19.6652  -11.2634 C   0  0  0  0  0  0  0  0  0  0  0  0
   -9.0455   20.0318  -10.1629 C   0  0  0  0  0  0  0  0  0  0  0  0
   -8.9513   19.3081   -8.9898 C   0  0  0  0  0  0  0  0  0  0  0  0
   -8.1036   18.2154   -8.9092 C   0  0  0  0  0  0  0  0  0  0  0  0
   -9.0447   18.3788   -5.6045 C   0  0  0  0  0  0  0  0  0  0  0  0
   -9.9700   17.6070   -5.7423 O   0  0  0  0  0  0  0  0  0  0  0  0
   -8.0278   18.3764   -6.4890 N   0  0  0  0  0  0  0  0  0  0  0  0
   -4.3944   18.8191   -1.9532 H   0  0  0  0  0  0  0  0  0  0  0  0
   -9.0320   19.3406   -4.4444 C   0  0  0  0  0  0  0  0  0  0  0  0
  -10.3215   21.0757   -3.3540 C   0  0  0  0  0  0  0  0  0  0  0  0
  -10.1461   20.2880   -4.5815 N   0  0  0  0  0  0  0  0  0  0  0  0
   -9.9529   21.1631   -5.7455 C   0  0  0  0  0  0  0  0  0  0  0  0
 26 27  1  0  0  0
 27 28  1  0  0  0
 27 25  1  0  0  0
 25 21  1  0  0  0
 21 22  2  0  0  0
 21 23  1  0  0  0
 23  1  1  0  0  0
  1 20  1  0  0  0
  1  2  1  0  0  0
  2  3  1  0  0  0
  3 13  1  0  0  0
  3  4  1  0  0  0
  3 14  1  0  0  0
  4  5  1  0  0  0
  5  6  1  0  0  0
  6  7  1  0  0  0
  6 12  1  0  0  0
  7  8  2  0  0  0
  7  9  1  0  0  0
  9 10  1  0  0  0
  9 11  1  0  0  0
 12 13  1  0  0  0
 14 15  1  0  0  0
 15 20  2  0  0  0
 15 16  1  0  0  0
 16 17  2  0  0  0
 17 18  1  0  0  0
 18 19  2  0  0  0
 19 20  1  0  0  0
 23 24  1  0  0  0
M  END
> <minimizedAffinity>
-8.26729

$$$$
ZINC000058281902


 23 25  0  0  0  0  0  0  0  0999 V2000
   -6.8923   14.1878  -11.5567 C   0  0  0  0  0  0  0  0  0  0  0  0
   -5.8867   14.8912  -12.4924 C   0  0  0  0  0  0  0  0  0  0  0  0
   -5.5706   16.2083  -11.7357 C   0  0  0  0  0  0  0  0  0  0  0  0
   -5.6088   15.7365  -10.2608 C   0  0  0  0  0  0  0  0  0  0  0  0
   -6.7022   14.7442  -10.2092 N   0  0  0  0  0  0  0  0  0  0  0  0
   -7.4047   14.4060   -9.1098 C   0  0  0  0  0  0  0  0  0  0  0  0
   -8.2851   13.5750   -9.1845 O   0  0  0  0  0  0  0  0  0  0  0  0
   -4.7963    9.5891  -10.9518 C   0  0  0  0  0  0  0  0  0  0  0  0
   -5.7115   10.7423  -11.2738 C   0  0  0  0  0  0  0  0  0  0  0  0
   -5.4596   12.0580  -11.0734 C   0  0  0  0  0  0  0  0  0  0  0  0
   -6.6267   12.7045  -11.5409 C   0  0  0  0  0  0  0  0  0  0  0  0
   -7.4262   11.7646  -11.9558 N   0  0  0  0  0  0  0  0  0  0  0  0
   -6.9332   10.6689  -11.8204 O   0  0  0  0  0  0  0  0  0  0  0  0
   -7.0964   15.0602   -7.7877 C   0  0  0  0  0  0  0  0  0  0  0  0
   -8.1852   15.9795   -7.4306 N   0  0  0  0  0  0  0  0  0  0  0  0
   -8.9423   15.4758   -6.2769 C   0  0  0  0  0  0  0  0  0  0  0  0
   -7.6700   17.3309   -7.1729 C   0  0  0  0  0  0  0  0  0  0  0  0
   -8.0068   18.2272   -8.3366 C   0  0  0  0  0  0  0  0  0  0  0  0
   -7.0459   18.5160   -9.2874 C   0  0  0  0  0  0  0  0  0  0  0  0
   -7.3549   19.3382  -10.3548 C   0  0  0  0  0  0  0  0  0  0  0  0
   -8.6249   19.8714  -10.4716 C   0  0  0  0  0  0  0  0  0  0  0  0
   -9.5861   19.5820   -9.5212 C   0  0  0  0  0  0  0  0  0  0  0  0
   -9.2783   18.7563   -8.4561 C   0  0  0  0  0  0  0  0  0  0  0  0
  8  9  1  0  0  0
  9 13  1  0  0  0
  9 10  2  0  0  0
 10 11  1  0  0  0
 11  1  1  0  0  0
 11 12  2  0  0  0
  1  5  1  0  0  0
  1  2  1  0  0  0
  2  3  1  0  0  0
  3  4  1  0  0  0
  4  5  1  0  0  0
  5  6  1  0  0  0
  6  7  2  0  0  0
  6 14  1  0  0  0
 14 15  1  0  0  0
 15 16  1  0  0  0
 15 17  1  0  0  0
 17 18  1  0  0  0
 18 23  1  0  0  0
 18 19  2  0  0  0
 19 20  1  0  0  0
 20 21  2  0  0  0
 21 22  1  0  0  0
 22 23  2  0  0  0
 12 13  1  0  0  0
M  END
> <minimizedAffinity>
-7.76111

$$$$
