ZINC000004711714


 32 34  0  0  0  0  0  0  0  0999 V2000
   -8.4472   18.0970   -7.7529 C   0  0  0  0  0  0  0  0  0  0  0  0
   -8.5828   18.9871   -6.6937 C   0  0  0  0  0  0  0  0  0  0  0  0
   -9.4207   18.6886   -5.6422 C   0  0  0  0  0  0  0  0  0  0  0  0
  -10.1375   17.4885   -5.6371 C   0  0  0  0  0  0  0  0  0  0  0  0
  -10.0028   16.5913   -6.7016 C   0  0  0  0  0  0  0  0  0  0  0  0
   -9.1658   16.8977   -7.7572 C   0  0  0  0  0  0  0  0  0  0  0  0
   -6.3893   18.2800  -11.3298 N   0  0  0  0  0  0  0  0  0  0  0  0
   -6.1454   17.2047  -10.3600 C   0  0  0  0  0  0  0  0  0  0  0  0
   -6.2819   17.7598   -8.9384 C   0  0  0  0  0  0  0  0  0  0  0  0
   -7.5990   18.4030   -8.8134 N   0  0  0  0  0  0  0  0  0  0  0  0
   -7.9943   19.3789   -9.8408 C   0  0  0  0  0  0  0  0  0  0  0  0
   -7.7776   18.7455  -11.2192 C   0  0  0  0  0  0  0  0  0  0  0  0
   -6.1671   17.7674  -12.7110 H   0  0  0  0  0  0  0  0  0  0  0  0
   -5.9517   16.2588  -12.6415 C   0  0  0  0  0  0  0  0  0  0  0  0
   -6.1509   17.7750  -12.6886 C   0  0  0  0  0  0  0  0  0  0  0  0
   -9.0280   16.0018   -8.8255 N   0  0  0  0  0  0  0  0  0  0  0  0
   -8.2670   14.8982   -8.6856 C   0  0  0  0  0  0  0  0  0  0  0  0
   -7.7667   14.6374   -7.6087 O   0  0  0  0  0  0  0  0  0  0  0  0
   -8.9704   18.1509  -13.4617 H   0  0  0  0  0  0  0  0  0  0  0  0
   -8.0407   14.0051   -9.8414 C   0  0  0  0  0  0  0  0  0  0  0  0
   -8.7405   14.2083  -11.0318 C   0  0  0  0  0  0  0  0  0  0  0  0
   -8.5246   13.3709  -12.1069 C   0  0  0  0  0  0  0  0  0  0  0  0
   -7.6169   12.3317  -12.0069 C   0  0  0  0  0  0  0  0  0  0  0  0
   -6.9197   12.1247  -10.8295 C   0  0  0  0  0  0  0  0  0  0  0  0
   -7.1219   12.9580   -9.7490 C   0  0  0  0  0  0  0  0  0  0  0  0
   -5.9504   11.0104  -10.7315 N   0  0  0  0  0  0  0  0  0  0  0  0
   -5.6356   10.3874  -11.7297 O   0  0  0  0  0  0  0  0  0  0  0  0
   -5.4677   10.7162   -9.6525 O   0  0  0  0  0  0  0  0  0  0  0  0
  -11.0343   17.1692   -4.5118 C   0  0  0  0  0  0  0  0  0  0  0  0
  -12.2316   17.0751   -4.6969 O   0  0  0  0  0  0  0  0  0  0  0  0
  -10.5264   16.9816   -3.2777 O   0  0  0  0  0  0  0  0  0  0  0  0
   -9.6688   15.8256   -3.0866 C   0  0  0  0  0  0  0  0  0  0  0  0
 14 15  1  0  0  0
 15  7  1  0  0  0
  7 12  1  0  0  0
  7  8  1  0  0  0
  8  9  1  0  0  0
  9 10  1  0  0  0
 10  1  1  0  0  0
 10 11  1  0  0  0
  1  6  1  0  0  0
  1  2  2  0  0  0
  2  3  1  0  0  0
  3  4  2  0  0  0
  4 29  1  0  0  0
  4  5  1  0  0  0
 29 30  2  0  0  0
 29 31  1  0  0  0
 31 32  1  0  0  0
  5  6  2  0  0  0
  6 16  1  0  0  0
 16 17  1  0  0  0
 17 18  2  0  0  0
 17 20  1  0  0  0
 20 25  1  0  0  0
 20 21  2  0  0  0
 21 22  1  0  0  0
 22 23  2  0  0  0
 23 24  1  0  0  0
 24 26  1  0  0  0
 24 25  2  0  0  0
 26 27  1  0  0  0
 26 28  2  0  0  0
 11 12  1  0  0  0
  7 13  1  0  0  0
 16 19  1  0  0  0
M  CHG 1   7   1
M  CHG 1  26   1
M  CHG 1  27  -1
M  END
> <minimizedAffinity>
-8.32654

$$$$
ZINC000004255712


 27 28  0  0  0  0  0  0  0  0999 V2000
   -5.0689   14.7050  -11.3167 C   0  0  0  0  0  0  0  0  0  0  0  0
   -5.4656   14.8351   -9.9501 O   0  0  0  0  0  0  0  0  0  0  0  0
   -5.4407   13.6093   -9.2161 C   0  0  0  0  0  0  0  0  0  0  0  0
   -6.4161   12.6154   -9.8520 C   0  0  0  0  0  0  0  0  0  0  0  0
   -7.7449   13.1356   -9.7766 O   0  0  0  0  0  0  0  0  0  0  0  0
   -6.0311   12.4019  -11.3193 C   0  0  0  0  0  0  0  0  0  0  0  0
   -6.9784   11.5307  -11.9402 O   0  0  0  0  0  0  0  0  0  0  0  0
   -6.0291   13.7550  -12.0374 C   0  0  0  0  0  0  0  0  0  0  0  0
   -5.6024   13.5773  -13.3896 O   0  0  0  0  0  0  0  0  0  0  0  0
   -3.9407   17.8903  -12.9529 H   0  0  0  0  0  0  0  0  0  0  0  0
   -3.9407   17.8903  -12.9529 H   0  0  0  0  0  0  0  0  0  0  0  0
   -3.9407   17.8903  -12.9529 H   0  0  0  0  0  0  0  0  0  0  0  0
   -5.8541   13.8739   -7.7669 C   0  0  0  0  0  0  0  0  0  0  0  0
   -5.0419   14.9161   -7.2226 O   0  0  0  0  0  0  0  0  0  0  0  0
   -4.9074   17.8732  -13.2255 H   0  0  0  0  0  0  0  0  0  0  0  0
   -5.1049   16.0191  -11.9633 N   0  0  0  0  0  0  0  0  0  0  0  0
   -5.6646   18.3678  -11.8862 H   0  0  0  0  0  0  0  0  0  0  0  0
   -6.4820   17.6961  -13.8035 C   0  0  0  0  0  0  0  0  0  0  0  0
   -6.6121   17.8717  -12.3124 C   0  0  0  0  0  0  0  0  0  0  0  0
   -7.4204   18.8679  -11.8017 C   0  0  0  0  0  0  0  0  0  0  0  0
   -7.5408   19.0294  -10.4333 C   0  0  0  0  0  0  0  0  0  0  0  0
   -6.8530   18.1944   -9.5724 C   0  0  0  0  0  0  0  0  0  0  0  0
   -6.0423   17.1962  -10.0765 C   0  0  0  0  0  0  0  0  0  0  0  0
   -5.9234   17.0278  -11.4500 C   0  0  0  0  0  0  0  0  0  0  0  0
   -8.4082   20.0983   -9.8896 N   0  0  0  0  0  0  0  0  0  0  0  0
   -8.5726   21.1283  -10.5186 O   0  0  0  0  0  0  0  0  0  0  0  0
   -8.9576   19.9480   -8.8129 O   0  0  0  0  0  0  0  0  0  0  0  0
 18 19  1  0  0  0
 19 24  2  0  0  0
 19 20  1  0  0  0
 20 21  2  0  0  0
 21 25  1  0  0  0
 21 22  1  0  0  0
 25 26  1  0  0  0
 25 27  2  0  0  0
 22 23  2  0  0  0
 23 24  1  0  0  0
 24 16  1  0  0  0
 16  1  1  0  0  0
  1  8  1  0  0  0
  1  2  1  0  0  0
  2  3  1  0  0  0
  3 13  1  0  0  0
  3  4  1  0  0  0
 13 14  1  0  0  0
  4  5  1  0  0  0
  4  6  1  0  0  0
  6  7  1  0  0  0
  6  8  1  0  0  0
  8  9  1  0  0  0
 16 17  1  0  0  0
 14 15  1  0  0  0
  5 10  1  0  0  0
  7 11  1  0  0  0
  9 12  1  0  0  0
M  CHG 1  25   1
M  CHG 1  26  -1
M  END
> <minimizedAffinity>
-8.39938

$$$$
ZINC000024752264


 32 34  0  0  0  0  0  0  0  0999 V2000
  -10.4443   16.4401   -6.3220 O   0  0  0  0  0  0  0  0  0  0  0  0
  -10.7974   17.1893   -5.2656 C   0  0  0  0  0  0  0  0  0  0  0  0
  -11.9345   17.1611   -4.8582 O   0  0  0  0  0  0  0  0  0  0  0  0
   -9.7756   18.0655   -4.5880 C   0  0  0  0  0  0  0  0  0  0  0  0
   -9.6516   19.3277   -5.3211 N   0  0  0  0  0  0  0  0  0  0  0  0
   -9.1920   19.4825   -6.5782 C   0  0  0  0  0  0  0  0  0  0  0  0
   -9.2230   20.7490   -6.9066 N   0  0  0  0  0  0  0  0  0  0  0  0
   -9.6996   21.4691   -5.8879 C   0  0  0  0  0  0  0  0  0  0  0  0
   -9.9888   20.5834   -4.8573 C   0  0  0  0  0  0  0  0  0  0  0  0
  -10.5129   21.0848   -3.6464 C   0  0  0  0  0  0  0  0  0  0  0  0
  -10.7741   20.3285   -2.7281 O   0  0  0  0  0  0  0  0  0  0  0  0
  -10.7208   22.4118   -3.5179 N   0  0  0  0  0  0  0  0  0  0  0  0
  -11.2641   22.9389   -2.2636 C   0  0  0  0  0  0  0  0  0  0  0  0
  -10.4364   23.2575   -4.5232 C   0  0  0  0  0  0  0  0  0  0  0  0
  -10.6364   24.4473   -4.3714 O   0  0  0  0  0  0  0  0  0  0  0  0
   -9.9393   22.8201   -5.6956 N   0  0  0  0  0  0  0  0  0  0  0  0
   -9.6425   23.7751   -6.7660 C   0  0  0  0  0  0  0  0  0  0  0  0
   -9.1463   15.7918   -6.2661 C   0  0  0  0  0  0  0  0  0  0  0  0
   -7.7222   15.5254   -9.6886 C   0  0  0  0  0  0  0  0  0  0  0  0
   -8.1135   14.4276  -10.0336 O   0  0  0  0  0  0  0  0  0  0  0  0
   -8.0397   16.0012   -8.4684 N   0  0  0  0  0  0  0  0  0  0  0  0
   -8.7912   15.2598   -7.6305 C   0  0  0  0  0  0  0  0  0  0  0  0
   -9.1816   14.1647   -7.9746 O   0  0  0  0  0  0  0  0  0  0  0  0
   -6.9828   14.6127  -12.2646 H   0  0  0  0  0  0  0  0  0  0  0  0
   -7.1968   17.6922  -10.8061 C   0  0  0  0  0  0  0  0  0  0  0  0
   -6.4167   18.4453  -11.6704 C   0  0  0  0  0  0  0  0  0  0  0  0
   -5.3563   17.8602  -12.3340 C   0  0  0  0  0  0  0  0  0  0  0  0
   -5.0630   16.5200  -12.1422 C   0  0  0  0  0  0  0  0  0  0  0  0
   -5.8275   15.7562  -11.2870 C   0  0  0  0  0  0  0  0  0  0  0  0
   -6.9000   16.3365  -10.6052 C   0  0  0  0  0  0  0  0  0  0  0  0
   -8.5606   19.6133  -10.5034 C   0  0  0  0  0  0  0  0  0  0  0  0
   -8.2387   18.2656  -10.1538 O   0  0  0  0  0  0  0  0  0  0  0  0
 31 32  1  0  0  0
 32 25  1  0  0  0
 25 30  2  0  0  0
 25 26  1  0  0  0
 26 27  2  0  0  0
 27 28  1  0  0  0
 28 29  2  0  0  0
 29 30  1  0  0  0
 30 19  1  0  0  0
 19 20  2  0  0  0
 19 21  1  0  0  0
 21 22  1  0  0  0
 22 23  2  0  0  0
 22 18  1  0  0  0
 18  1  1  0  0  0
  1  2  1  0  0  0
  2  3  2  0  0  0
  2  4  1  0  0  0
  4  5  1  0  0  0
  5  9  1  0  0  0
  5  6  1  0  0  0
  6  7  2  0  0  0
  7  8  1  0  0  0
  8 16  1  0  0  0
  8  9  2  0  0  0
  9 10  1  0  0  0
 10 11  2  0  0  0
 10 12  1  0  0  0
 12 13  1  0  0  0
 12 14  1  0  0  0
 14 15  2  0  0  0
 14 16  1  0  0  0
 16 17  1  0  0  0
 21 24  1  0  0  0
M  END
> <minimizedAffinity>
-8.93559

$$$$
ZINC000017724591


 29 33  0  0  0  0  0  0  0  0999 V2000
   -9.1936   18.2323   -8.9127 O   0  0  0  0  0  0  0  0  0  0  0  0
   -8.8335   17.1107   -8.6267 C   0  0  0  0  0  0  0  0  0  0  0  0
   -8.3696   16.0637   -9.6140 C   0  0  0  0  0  0  0  0  0  0  0  0
   -8.0368   14.8435   -8.7126 C   0  0  0  0  0  0  0  0  0  0  0  0
   -8.3517   15.3421   -7.3204 C   0  0  0  0  0  0  0  0  0  0  0  0
   -8.2301   14.6972   -6.3012 O   0  0  0  0  0  0  0  0  0  0  0  0
   -8.7792   16.6082   -7.3878 N   0  0  0  0  0  0  0  0  0  0  0  0
   -6.5194   14.6321   -8.8644 C   0  0  0  0  0  0  0  0  0  0  0  0
   -5.8975   14.3868   -7.4775 C   0  0  0  0  0  0  0  0  0  0  0  0
   -5.4827   15.7781   -6.9601 C   0  0  0  0  0  0  0  0  0  0  0  0
   -5.9143   16.7639   -8.0644 C   0  0  0  0  0  0  0  0  0  0  0  0
   -5.9848   15.9478   -9.3285 N   0  0  0  0  0  0  0  0  0  0  0  0
   -7.0315   16.4887  -10.2296 C   0  0  0  0  0  0  0  0  0  0  0  0
   -6.8882   15.8171  -11.5728 C   0  0  0  0  0  0  0  0  0  0  0  0
   -6.9416   14.6115  -11.6879 O   0  0  0  0  0  0  0  0  0  0  0  0
   -6.6976   16.6231  -12.6437 N   0  0  0  0  0  0  0  0  0  0  0  0
   -6.6381   17.9540  -12.5185 C   0  0  0  0  0  0  0  0  0  0  0  0
   -6.4636   18.6022  -13.5311 O   0  0  0  0  0  0  0  0  0  0  0  0
   -6.7555   18.6295  -11.3694 N   0  0  0  0  0  0  0  0  0  0  0  0
   -6.9513   17.9948  -10.1897 C   0  0  0  0  0  0  0  0  0  0  0  0
   -7.0581   18.6083   -9.1496 O   0  0  0  0  0  0  0  0  0  0  0  0
   -9.1137   18.2542   -8.9049 H   0  0  0  0  0  0  0  0  0  0  0  0
   -9.1137   18.2542   -8.9049 H   0  0  0  0  0  0  0  0  0  0  0  0
   -9.1493   17.3450   -6.2539 C   0  0  0  0  0  0  0  0  0  0  0  0
   -8.3152   18.3444   -5.7710 C   0  0  0  0  0  0  0  0  0  0  0  0
   -8.6825   19.0685   -4.6537 C   0  0  0  0  0  0  0  0  0  0  0  0
   -9.8793   18.7987   -4.0158 C   0  0  0  0  0  0  0  0  0  0  0  0
  -10.7120   17.8039   -4.4943 C   0  0  0  0  0  0  0  0  0  0  0  0
  -10.3531   17.0806   -5.6150 C   0  0  0  0  0  0  0  0  0  0  0  0
  1  2  2  0  0  0
  2  7  1  0  0  0
  2  3  1  0  0  0
  3 13  1  0  0  0
  3  4  1  0  0  0
  4  5  1  0  0  0
  4  8  1  0  0  0
  5  6  2  0  0  0
  5  7  1  0  0  0
  7 24  1  0  0  0
 24 29  1  0  0  0
 24 25  2  0  0  0
 25 26  1  0  0  0
 26 27  2  0  0  0
 27 28  1  0  0  0
 28 29  2  0  0  0
  8 12  1  0  0  0
  8  9  1  0  0  0
  9 10  1  0  0  0
 10 11  1  0  0  0
 12 11  1  0  0  0
 12 13  1  0  0  0
 13 20  1  0  0  0
 13 14  1  0  0  0
 14 15  2  0  0  0
 14 16  1  0  0  0
 16 17  1  0  0  0
 17 18  2  0  0  0
 17 19  1  0  0  0
 19 20  1  0  0  0
 20 21  2  0  0  0
 16 22  1  0  0  0
 19 23  1  0  0  0
M  END
> <minimizedAffinity>
-8.43398

$$$$
ZINC000095918564


 34 37  0  0  0  0  0  0  0  0999 V2000
   -8.0261   18.0071   -7.7767 C   0  0  0  0  0  0  0  0  0  0  0  0
   -8.5810   18.6915   -6.6813 C   0  0  0  0  0  0  0  0  0  0  0  0
   -8.6286   18.4717   -5.3457 N   0  0  0  0  0  0  0  0  0  0  0  0
   -9.2825   19.4388   -4.7705 C   0  0  0  0  0  0  0  0  0  0  0  0
   -9.6960   20.3414   -5.7047 N   0  0  0  0  0  0  0  0  0  0  0  0
   -9.2651   19.8937   -6.9279 C   0  0  0  0  0  0  0  0  0  0  0  0
   -9.3628   20.3369   -8.1772 N   0  0  0  0  0  0  0  0  0  0  0  0
   -8.8273   19.6620   -9.1727 C   0  0  0  0  0  0  0  0  0  0  0  0
   -8.1701   18.5316   -8.9903 N   0  0  0  0  0  0  0  0  0  0  0  0
  -10.4597   21.5653   -5.4493 C   0  0  0  0  0  0  0  0  0  0  0  0
  -11.0707   21.5128   -4.1417 O   0  0  0  0  0  0  0  0  0  0  0  0
  -11.3521   22.8871   -3.7979 C   0  0  0  0  0  0  0  0  0  0  0  0
  -10.1161   23.6764   -4.2837 C   0  0  0  0  0  0  0  0  0  0  0  0
  -10.5081   24.9453   -4.8113 O   0  0  0  0  0  0  0  0  0  0  0  0
   -9.5159   22.7872   -5.3980 C   0  0  0  0  0  0  0  0  0  0  0  0
   -9.5166   23.4812   -6.6472 O   0  0  0  0  0  0  0  0  0  0  0  0
   -1.9375   14.7158   -9.2685 H   0  0  0  0  0  0  0  0  0  0  0  0
   -1.9375   14.7158   -9.2685 H   0  0  0  0  0  0  0  0  0  0  0  0
  -11.5194   23.0339   -2.2842 C   0  0  0  0  0  0  0  0  0  0  0  0
  -12.8979   22.8797   -1.9402 O   0  0  0  0  0  0  0  0  0  0  0  0
   -5.9889   11.7110   -9.4250 H   0  0  0  0  0  0  0  0  0  0  0  0
   -7.1540   16.4934   -7.5463 S   0  0  0  0  0  0  0  0  0  0  0  0
   -6.0961   16.5136   -9.0147 C   0  0  0  0  0  0  0  0  0  0  0  0
   -7.2457   13.2860  -10.6012 C   0  0  0  0  0  0  0  0  0  0  0  0
   -7.5771   13.7040  -11.8766 C   0  0  0  0  0  0  0  0  0  0  0  0
   -7.4299   15.0316  -12.2298 C   0  0  0  0  0  0  0  0  0  0  0  0
   -6.9496   15.9454  -11.3033 C   0  0  0  0  0  0  0  0  0  0  0  0
   -6.8044   17.2519  -11.6482 O   0  0  0  0  0  0  0  0  0  0  0  0
   -6.6182   15.5235  -10.0237 C   0  0  0  0  0  0  0  0  0  0  0  0
   -6.7721   14.1961   -9.6739 C   0  0  0  0  0  0  0  0  0  0  0  0
   -7.1194   11.4982   -9.1034 H   0  0  0  0  0  0  0  0  0  0  0  0
   -7.8935   11.0757  -11.0154 O   0  0  0  0  0  0  0  0  0  0  0  0
   -7.4039   11.8632  -10.2256 N   0  0  0  0  0  0  0  0  0  0  0  0
   -7.0401   11.4787   -9.1286 O   0  0  0  0  0  0  0  0  0  0  0  0
 32 33  1  0  0  0
 33 34  2  0  0  0
 33 24  1  0  0  0
 24 30  2  0  0  0
 24 25  1  0  0  0
 25 26  2  0  0  0
 26 27  1  0  0  0
 27 28  1  0  0  0
 27 29  2  0  0  0
 29 23  1  0  0  0
 29 30  1  0  0  0
 23 22  1  0  0  0
 22  1  1  0  0  0
  1  9  1  0  0  0
  1  2  2  0  0  0
  2  6  1  0  0  0
  2  3  1  0  0  0
  3  4  2  0  0  0
  4  5  1  0  0  0
  5 10  1  0  0  0
  5  6  1  0  0  0
 10 15  1  0  0  0
 10 11  1  0  0  0
 11 12  1  0  0  0
 12 19  1  0  0  0
 12 13  1  0  0  0
 19 20  1  0  0  0
 13 14  1  0  0  0
 13 15  1  0  0  0
 15 16  1  0  0  0
  6  7  2  0  0  0
  7  8  1  0  0  0
  8  9  2  0  0  0
 28 31  1  0  0  0
 20 21  1  0  0  0
 14 17  1  0  0  0
 16 18  1  0  0  0
M  CHG 1  32  -1
M  CHG 1  33   1
M  END
> <minimizedAffinity>
-8.72306

$$$$
ZINC000008705880


 34 36  0  0  0  0  0  0  0  0999 V2000
   -8.9743   20.3532  -10.6221 O   0  0  0  0  0  0  0  0  0  0  0  0
   -8.4327   19.6682   -9.7766 C   0  0  0  0  0  0  0  0  0  0  0  0
   -7.5395   18.7275  -10.1421 N   0  0  0  0  0  0  0  0  0  0  0  0
   -8.9720   20.3533  -10.6176 H   0  0  0  0  0  0  0  0  0  0  0  0
   -8.7494   19.8711   -8.3466 C   0  0  0  0  0  0  0  0  0  0  0  0
   -9.2248   21.1061   -7.9031 C   0  0  0  0  0  0  0  0  0  0  0  0
   -9.5200   21.2931   -6.5679 C   0  0  0  0  0  0  0  0  0  0  0  0
   -9.3467   20.2605   -5.6658 C   0  0  0  0  0  0  0  0  0  0  0  0
   -8.8738   19.0264   -6.0972 C   0  0  0  0  0  0  0  0  0  0  0  0
   -8.5792   18.8271   -7.4373 C   0  0  0  0  0  0  0  0  0  0  0  0
   -8.7006   17.9856   -5.1814 N   0  0  0  0  0  0  0  0  0  0  0  0
   -7.0654   22.7539   -5.6106 H   0  0  0  0  0  0  0  0  0  0  0  0
   -9.4440   16.5277   -5.4348 S   0  0  0  0  0  0  0  0  0  0  0  0
   -9.3240   15.7998   -4.2203 O   0  0  0  0  0  0  0  0  0  0  0  0
  -10.6929   16.8154   -6.0485 O   0  0  0  0  0  0  0  0  0  0  0  0
   -8.4896   15.6569   -6.6330 C   0  0  0  0  0  0  0  0  0  0  0  0
   -7.1374   15.4566   -6.4268 C   0  0  0  0  0  0  0  0  0  0  0  0
   -6.3887   14.7735   -7.3668 C   0  0  0  0  0  0  0  0  0  0  0  0
   -6.9922   14.2902   -8.5128 C   0  0  0  0  0  0  0  0  0  0  0  0
   -8.3445   14.4898   -8.7185 C   0  0  0  0  0  0  0  0  0  0  0  0
   -9.0941   15.1691   -7.7764 C   0  0  0  0  0  0  0  0  0  0  0  0
   -7.2213   18.5305  -11.5585 C   0  0  0  0  0  0  0  0  0  0  0  0
   -5.8999   17.7695  -11.6834 C   0  0  0  0  0  0  0  0  0  0  0  0
   -5.2130   18.1979  -12.8611 O   0  0  0  0  0  0  0  0  0  0  0  0
   -9.1139   20.4371  -11.3234 H   0  0  0  0  0  0  0  0  0  0  0  0
   -6.1781   16.2912  -11.7740 C   0  0  0  0  0  0  0  0  0  0  0  0
   -5.1585   15.3818  -11.5644 C   0  0  0  0  0  0  0  0  0  0  0  0
   -5.4138   14.0257  -11.6475 C   0  0  0  0  0  0  0  0  0  0  0  0
   -6.6889   13.5792  -11.9398 C   0  0  0  0  0  0  0  0  0  0  0  0
   -7.7090   14.4886  -12.1482 C   0  0  0  0  0  0  0  0  0  0  0  0
   -7.4544   15.8445  -12.0612 C   0  0  0  0  0  0  0  0  0  0  0  0
   -6.9622   12.1272  -12.0293 N   0  0  0  0  0  0  0  0  0  0  0  0
   -8.0826   11.7340  -12.3006 O   0  0  0  0  0  0  0  0  0  0  0  0
   -6.0666   11.3256  -11.8317 O   0  0  0  0  0  0  0  0  0  0  0  0
  1  2  2  0  0  0
  2  3  1  0  0  0
  2  5  1  0  0  0
  3 22  1  0  0  0
 22 23  1  0  0  0
 23 24  1  0  0  0
 23 26  1  0  0  0
 26 31  1  0  0  0
 26 27  2  0  0  0
 27 28  1  0  0  0
 28 29  2  0  0  0
 29 32  1  0  0  0
 29 30  1  0  0  0
 32 33  1  0  0  0
 32 34  2  0  0  0
 30 31  2  0  0  0
  5 10  1  0  0  0
  5  6  2  0  0  0
  6  7  1  0  0  0
  7  8  2  0  0  0
  8  9  1  0  0  0
  9 11  1  0  0  0
  9 10  2  0  0  0
 11 13  1  0  0  0
 13 14  2  0  0  0
 13 15  2  0  0  0
 13 16  1  0  0  0
 16 21  1  0  0  0
 16 17  2  0  0  0
 17 18  1  0  0  0
 18 19  2  0  0  0
 19 20  1  0  0  0
 20 21  2  0  0  0
  3  4  1  0  0  0
 24 25  1  0  0  0
 11 12  1  0  0  0
M  CHG 1  32   1
M  CHG 1  33  -1
M  END
> <minimizedAffinity>
-8.75493

$$$$
ZINC000095941914


 22 23  0  0  0  0  0  0  0  0999 V2000
   -9.0471   17.8539   -7.0160 S   0  0  0  0  0  0  0  0  0  0  0  0
   -8.1695   17.8118   -5.8991 O   0  0  0  0  0  0  0  0  0  0  0  0
  -10.1940   17.0234   -7.1349 O   0  0  0  0  0  0  0  0  0  0  0  0
   -8.0565   17.5408   -8.4391 C   0  0  0  0  0  0  0  0  0  0  0  0
   -7.7187   18.5784   -9.2876 C   0  0  0  0  0  0  0  0  0  0  0  0
   -6.9418   18.3332  -10.4045 C   0  0  0  0  0  0  0  0  0  0  0  0
   -6.5024   17.0495  -10.6727 C   0  0  0  0  0  0  0  0  0  0  0  0
   -5.4393   16.7136  -12.2001 Br  0  0  0  0  0  0  0  0  0  0  0  0
   -6.8405   16.0115   -9.8230 C   0  0  0  0  0  0  0  0  0  0  0  0
   -7.6128   16.2584   -8.7038 C   0  0  0  0  0  0  0  0  0  0  0  0
   -7.9741   15.1480   -7.7945 N   0  0  0  0  0  0  0  0  0  0  0  0
   -7.3205   14.9495   -6.7860 O   0  0  0  0  0  0  0  0  0  0  0  0
   -8.9248   14.4326   -8.0547 O   0  0  0  0  0  0  0  0  0  0  0  0
   -9.5867   19.4154   -7.1282 N   0  0  0  0  0  0  0  0  0  0  0  0
   -8.3692   23.4780   -8.2258 H   0  0  0  0  0  0  0  0  0  0  0  0
  -12.3438   21.9084   -5.1734 O   0  0  0  0  0  0  0  0  0  0  0  0
  -11.2144   21.6626   -5.5411 C   0  0  0  0  0  0  0  0  0  0  0  0
  -10.3732   20.5079   -5.0434 C   0  0  0  0  0  0  0  0  0  0  0  0
   -9.2395   20.3869   -6.0880 C   0  0  0  0  0  0  0  0  0  0  0  0
   -9.1873   21.8195   -6.6637 C   0  0  0  0  0  0  0  0  0  0  0  0
  -10.5303   22.3731   -6.4543 N   0  0  0  0  0  0  0  0  0  0  0  0
  -12.5798   22.2775   -5.6993 H   0  0  0  0  0  0  0  0  0  0  0  0
 16 17  2  0  0  0
 17 21  1  0  0  0
 17 18  1  0  0  0
 18 19  1  0  0  0
 19 14  1  0  0  0
 19 20  1  0  0  0
 14  1  1  0  0  0
  1  2  2  0  0  0
  1  3  2  0  0  0
  1  4  1  0  0  0
  4 10  1  0  0  0
  4  5  2  0  0  0
  5  6  1  0  0  0
  6  7  2  0  0  0
  7  8  1  0  0  0
  7  9  1  0  0  0
  9 10  2  0  0  0
 10 11  1  0  0  0
 11 12  1  0  0  0
 11 13  2  0  0  0
 20 21  1  0  0  0
 14 15  1  0  0  0
 21 22  1  0  0  0
M  CHG 1  11   1
M  CHG 1  12  -1
M  END
> <minimizedAffinity>
-7.19680

$$$$
ZINC000034677159


 35 38  0  0  0  0  0  0  0  0999 V2000
   -8.0319   16.2110   -7.5483 N   0  0  0  0  0  0  0  0  0  0  0  0
   -9.0341   15.2156   -7.9545 C   0  0  0  0  0  0  0  0  0  0  0  0
   -8.5348   14.4698   -9.1940 C   0  0  0  0  0  0  0  0  0  0  0  0
   -7.2594   13.8088   -8.8873 N   0  0  0  0  0  0  0  0  0  0  0  0
   -6.2620   14.8179   -8.5071 C   0  0  0  0  0  0  0  0  0  0  0  0
   -6.7424   15.5664   -7.2619 C   0  0  0  0  0  0  0  0  0  0  0  0
  -14.3776   17.7988   -6.8585 H   0  0  0  0  0  0  0  0  0  0  0  0
   -8.5001   16.9882   -6.3931 C   0  0  0  0  0  0  0  0  0  0  0  0
   -9.4269   20.4654   -6.8089 C   0  0  0  0  0  0  0  0  0  0  0  0
   -9.2440   20.1038   -8.1082 C   0  0  0  0  0  0  0  0  0  0  0  0
   -8.8889   18.8090   -8.1079 O   0  0  0  0  0  0  0  0  0  0  0  0
   -8.8543   18.3841   -6.8370 C   0  0  0  0  0  0  0  0  0  0  0  0
   -9.1694   19.3672   -6.0479 N   0  0  0  0  0  0  0  0  0  0  0  0
  -10.9961   22.1197   -6.3130 O   0  0  0  0  0  0  0  0  0  0  0  0
   -9.8232   21.7975   -6.3180 C   0  0  0  0  0  0  0  0  0  0  0  0
   -8.8866   22.6567   -5.8697 N   0  0  0  0  0  0  0  0  0  0  0  0
  -10.9938   22.1124   -6.3025 H   0  0  0  0  0  0  0  0  0  0  0  0
   -9.2510   23.9533   -5.4892 C   0  0  0  0  0  0  0  0  0  0  0  0
   -9.3712   24.2752   -4.1437 C   0  0  0  0  0  0  0  0  0  0  0  0
   -9.7302   25.5555   -3.7703 C   0  0  0  0  0  0  0  0  0  0  0  0
   -9.9705   26.5178   -4.7365 C   0  0  0  0  0  0  0  0  0  0  0  0
  -10.3217   27.7696   -4.3692 F   0  0  0  0  0  0  0  0  0  0  0  0
   -9.8508   26.1991   -6.0789 C   0  0  0  0  0  0  0  0  0  0  0  0
   -9.4872   24.9213   -6.4565 C   0  0  0  0  0  0  0  0  0  0  0  0
   -6.7894   13.0785  -10.0720 C   0  0  0  0  0  0  0  0  0  0  0  0
   -5.9010   13.9942  -10.9164 C   0  0  0  0  0  0  0  0  0  0  0  0
   -4.7034   13.3005  -11.2720 O   0  0  0  0  0  0  0  0  0  0  0  0
   -7.3434    7.1851   -2.6457 H   0  0  0  0  0  0  0  0  0  0  0  0
   -6.6504   14.4023  -12.1863 C   0  0  0  0  0  0  0  0  0  0  0  0
   -6.5455   15.8558  -12.3712 N   0  0  0  0  0  0  0  0  0  0  0  0
   -5.1399   16.2868  -12.3714 C   0  0  0  0  0  0  0  0  0  0  0  0
   -5.0742   17.7950  -12.6257 C   0  0  0  0  0  0  0  0  0  0  0  0
   -5.8488   18.4748  -11.6341 O   0  0  0  0  0  0  0  0  0  0  0  0
   -7.2230   18.0797  -11.6064 C   0  0  0  0  0  0  0  0  0  0  0  0
   -7.3104   16.5743  -11.3417 C   0  0  0  0  0  0  0  0  0  0  0  0
 14 15  2  0  0  0
 15 16  1  0  0  0
 15  9  1  0  0  0
 16 18  1  0  0  0
 18 24  1  0  0  0
 18 19  2  0  0  0
 19 20  1  0  0  0
 20 21  2  0  0  0
 21 22  1  0  0  0
 21 23  1  0  0  0
 23 24  2  0  0  0
  9 13  1  0  0  0
  9 10  2  0  0  0
 10 11  1  0  0  0
 11 12  1  0  0  0
 12  8  1  0  0  0
 12 13  2  0  0  0
  8  1  1  0  0  0
  1  6  1  0  0  0
  1  2  1  0  0  0
  2  3  1  0  0  0
  3  4  1  0  0  0
  4 25  1  0  0  0
  4  5  1  0  0  0
 25 26  1  0  0  0
 26 27  1  0  0  0
 26 29  1  0  0  0
 29 30  1  0  0  0
 30 35  1  0  0  0
 30 31  1  0  0  0
 31 32  1  0  0  0
 32 33  1  0  0  0
 33 34  1  0  0  0
 34 35  1  0  0  0
  5  6  1  0  0  0
 16 17  1  0  0  0
  4  7  1  0  0  0
 27 28  1  0  0  0
M  CHG 1   4   1
M  END
> <minimizedAffinity>
-7.46497

$$$$
ZINC000020465297


 31 33  0  0  0  0  0  0  0  0999 V2000
   -6.6693   15.1061   -9.9930 C   0  0  0  0  0  0  0  0  0  0  0  0
   -7.6182   14.3881   -9.0079 C   0  0  0  0  0  0  0  0  0  0  0  0
   -8.2473   13.3506   -9.7915 O   0  0  0  0  0  0  0  0  0  0  0  0
   -7.1971   12.8136  -10.6249 C   0  0  0  0  0  0  0  0  0  0  0  0
   -6.3825   14.0480  -11.0818 C   0  0  0  0  0  0  0  0  0  0  0  0
   -6.8369   14.5033  -12.3579 O   0  0  0  0  0  0  0  0  0  0  0  0
   -7.7359   18.1257  -12.4498 H   0  0  0  0  0  0  0  0  0  0  0  0
   -6.3234   17.1451  -11.2250 C   0  0  0  0  0  0  0  0  0  0  0  0
   -6.3916   18.5252  -10.5381 C   0  0  0  0  0  0  0  0  0  0  0  0
   -7.8179   18.5421   -9.9282 C   0  0  0  0  0  0  0  0  0  0  0  0
   -7.9971   17.0613   -9.5105 C   0  0  0  0  0  0  0  0  0  0  0  0
   -7.3282   16.2814  -10.5782 N   0  0  0  0  0  0  0  0  0  0  0  0
   -7.4745   18.4224  -12.1484 H   0  0  0  0  0  0  0  0  0  0  0  0
   -6.6420   17.2887  -12.7146 C   0  0  0  0  0  0  0  0  0  0  0  0
   -7.0466   19.1741  -14.1382 C   0  0  0  0  0  0  0  0  0  0  0  0
   -6.1834   18.5597  -13.1794 O   0  0  0  0  0  0  0  0  0  0  0  0
   -7.7940   12.0888  -11.8330 C   0  0  0  0  0  0  0  0  0  0  0  0
   -7.1385   10.8308  -12.0055 O   0  0  0  0  0  0  0  0  0  0  0  0
  -11.8706   15.3564   -8.7455 H   0  0  0  0  0  0  0  0  0  0  0  0
   -8.6673   15.3641   -8.4719 C   0  0  0  0  0  0  0  0  0  0  0  0
   -9.3696   14.7533   -7.3405 N   0  0  0  0  0  0  0  0  0  0  0  0
   -7.5145   19.1936  -11.3569 H   0  0  0  0  0  0  0  0  0  0  0  0
   -8.9086   15.1088   -5.7902 S   0  0  0  0  0  0  0  0  0  0  0  0
   -9.7455   14.3407   -4.9365 O   0  0  0  0  0  0  0  0  0  0  0  0
   -7.4901   15.0290   -5.7651 O   0  0  0  0  0  0  0  0  0  0  0  0
   -9.3171   16.7979   -5.4990 C   0  0  0  0  0  0  0  0  0  0  0  0
  -10.4600   17.1205   -4.7916 C   0  0  0  0  0  0  0  0  0  0  0  0
  -10.7806   18.4456   -4.5630 C   0  0  0  0  0  0  0  0  0  0  0  0
   -9.9578   19.4482   -5.0416 C   0  0  0  0  0  0  0  0  0  0  0  0
   -8.8144   19.1255   -5.7482 C   0  0  0  0  0  0  0  0  0  0  0  0
   -8.4917   17.8003   -5.9731 C   0  0  0  0  0  0  0  0  0  0  0  0
 15 16  1  0  0  0
 16 14  1  0  0  0
 14  8  1  0  0  0
  8 12  1  0  0  0
  8  9  1  0  0  0
  9 10  1  0  0  0
 10 11  1  0  0  0
 11 12  1  0  0  0
 12  1  1  0  0  0
  1  5  1  0  0  0
  1  2  1  0  0  0
  2 20  1  0  0  0
  2  3  1  0  0  0
 20 21  1  0  0  0
 21 23  1  0  0  0
 23 24  2  0  0  0
 23 25  2  0  0  0
 23 26  1  0  0  0
 26 31  1  0  0  0
 26 27  2  0  0  0
 27 28  1  0  0  0
 28 29  2  0  0  0
 29 30  1  0  0  0
 30 31  2  0  0  0
  3  4  1  0  0  0
  4 17  1  0  0  0
  4  5  1  0  0  0
 17 18  1  0  0  0
  5  6  1  0  0  0
 12 13  1  0  0  0
 21 22  1  0  0  0
 18 19  1  0  0  0
  6  7  1  0  0  0
M  CHG 1  12   1
M  END
> <minimizedAffinity>
-7.49845

$$$$
ZINC000091289527


 26 28  0  0  0  0  0  0  0  0999 V2000
   -8.7087   17.3538   -6.9514 N   0  0  0  0  0  0  0  0  0  0  0  0
   -9.1619   16.2314   -7.7835 C   0  0  0  0  0  0  0  0  0  0  0  0
   -7.9643   15.6749   -8.5593 C   0  0  0  0  0  0  0  0  0  0  0  0
   -7.4104   16.7361   -9.4090 N   0  0  0  0  0  0  0  0  0  0  0  0
   -6.9544   17.8827   -8.6102 C   0  0  0  0  0  0  0  0  0  0  0  0
   -6.5794   19.0234   -9.5963 C   0  0  0  0  0  0  0  0  0  0  0  0
   -8.2208   19.6373  -10.1350 S   0  0  0  0  0  0  0  0  0  0  0  0
   -8.2102   21.0581  -10.1510 O   0  0  0  0  0  0  0  0  0  0  0  0
   -8.6368   18.9195  -11.2886 O   0  0  0  0  0  0  0  0  0  0  0  0
   -9.1651   19.0539   -8.6797 C   0  0  0  0  0  0  0  0  0  0  0  0
   -8.1125   18.4180   -7.7562 C   0  0  0  0  0  0  0  0  0  0  0  0
   -9.8058   17.8719   -6.1233 C   0  0  0  0  0  0  0  0  0  0  0  0
   -9.7883   17.1768   -4.7604 C   0  0  0  0  0  0  0  0  0  0  0  0
  -11.3496   15.8999   -3.5248 O   0  0  0  0  0  0  0  0  0  0  0  0
  -11.1811   16.7190   -4.4120 C   0  0  0  0  0  0  0  0  0  0  0  0
  -12.1399   17.1714   -5.0141 O   0  0  0  0  0  0  0  0  0  0  0  0
  -11.3472   15.9041   -3.5261 H   0  0  0  0  0  0  0  0  0  0  0  0
   -6.3266   16.2204  -10.2561 C   0  0  0  0  0  0  0  0  0  0  0  0
   -6.8892   15.2332  -11.2460 C   0  0  0  0  0  0  0  0  0  0  0  0
   -7.6833   15.6017  -12.0852 O   0  0  0  0  0  0  0  0  0  0  0  0
   -6.5098   13.9408  -11.1987 N   0  0  0  0  0  0  0  0  0  0  0  0
   -5.5524   13.4690  -10.1857 C   0  0  0  0  0  0  0  0  0  0  0  0
   -6.1456   12.2343   -9.4977 C   0  0  0  0  0  0  0  0  0  0  0  0
   -6.5377   11.2845  -10.4917 O   0  0  0  0  0  0  0  0  0  0  0  0
   -7.5619   11.7498  -11.3741 C   0  0  0  0  0  0  0  0  0  0  0  0
   -7.0454   12.9586  -12.1545 C   0  0  0  0  0  0  0  0  0  0  0  0
 14 15  2  0  0  0
 15 16  1  0  0  0
 15 13  1  0  0  0
 13 12  1  0  0  0
 12  1  1  0  0  0
  1 11  1  0  0  0
  1  2  1  0  0  0
  2  3  1  0  0  0
  3  4  1  0  0  0
  4 18  1  0  0  0
  4  5  1  0  0  0
 18 19  1  0  0  0
 19 20  2  0  0  0
 19 21  1  0  0  0
 21 26  1  0  0  0
 21 22  1  0  0  0
 22 23  1  0  0  0
 23 24  1  0  0  0
 24 25  1  0  0  0
 25 26  1  0  0  0
  5 11  1  0  0  0
  5  6  1  0  0  0
  6  7  1  0  0  0
  7  8  2  0  0  0
  7  9  2  0  0  0
  7 10  1  0  0  0
 10 11  1  0  0  0
 16 17  1  0  0  0
M  END
> <minimizedAffinity>
-7.21272

$$$$
ZINC000072367046


 26 28  0  0  0  0  0  0  0  0999 V2000
   -4.8126   15.0992   -7.4516 C   0  0  0  0  0  0  0  0  0  0  0  0
   -6.0779   15.6040   -8.0959 C   0  0  0  0  0  0  0  0  0  0  0  0
   -7.2210   15.4737   -7.4533 N   0  0  0  0  0  0  0  0  0  0  0  0
   -8.3524   15.9050   -7.9878 C   0  0  0  0  0  0  0  0  0  0  0  0
   -8.3231   16.4996   -9.2391 C   0  0  0  0  0  0  0  0  0  0  0  0
   -7.1019   16.6189   -9.8839 C   0  0  0  0  0  0  0  0  0  0  0  0
   -6.0111   16.1690   -9.2850 N   0  0  0  0  0  0  0  0  0  0  0  0
   -7.0167   17.2579  -11.2461 C   0  0  0  0  0  0  0  0  0  0  0  0
   -5.7944   18.1978  -11.3096 C   0  0  0  0  0  0  0  0  0  0  0  0
   -5.2549   17.9731  -12.7466 C   0  0  0  0  0  0  0  0  0  0  0  0
   -5.5315   16.4628  -12.9521 C   0  0  0  0  0  0  0  0  0  0  0  0
   -6.8276   16.2199  -12.2761 N   0  0  0  0  0  0  0  0  0  0  0  0
   -6.8042   14.9151   -8.3766 H   0  0  0  0  0  0  0  0  0  0  0  0
   -6.8135   14.8951  -11.6416 C   0  0  0  0  0  0  0  0  0  0  0  0
   -7.9917   14.0655  -12.1611 C   0  0  0  0  0  0  0  0  0  0  0  0
   -7.9237   12.6614  -11.5548 C   0  0  0  0  0  0  0  0  0  0  0  0
   -6.6704   12.0607  -11.8872 O   0  0  0  0  0  0  0  0  0  0  0  0
   -5.5337   12.7674  -11.3866 C   0  0  0  0  0  0  0  0  0  0  0  0
   -5.5057   14.1758  -11.9860 C   0  0  0  0  0  0  0  0  0  0  0  0
   -9.6548   15.7521   -7.2452 C   0  0  0  0  0  0  0  0  0  0  0  0
   -9.4241   16.0036   -5.7537 C   0  0  0  0  0  0  0  0  0  0  0  0
  -10.3734   17.0700   -5.2714 C   0  0  0  0  0  0  0  0  0  0  0  0
  -11.5450   16.8069   -5.1007 O   0  0  0  0  0  0  0  0  0  0  0  0
   -9.9205   18.3162   -5.0299 N   0  0  0  0  0  0  0  0  0  0  0  0
  -10.8432   19.3529   -4.5611 C   0  0  0  0  0  0  0  0  0  0  0  0
   -8.5052   18.6340   -5.2362 C   0  0  0  0  0  0  0  0  0  0  0  0
  1  2  1  0  0  0
  2  7  2  0  0  0
  2  3  1  0  0  0
  3  4  2  0  0  0
  4 20  1  0  0  0
  4  5  1  0  0  0
 20 21  1  0  0  0
 21 22  1  0  0  0
 22 23  2  0  0  0
 22 24  1  0  0  0
 24 25  1  0  0  0
 24 26  1  0  0  0
  5  6  2  0  0  0
  6  8  1  0  0  0
  6  7  1  0  0  0
  8 12  1  0  0  0
  8  9  1  0  0  0
  9 10  1  0  0  0
 10 11  1  0  0  0
 11 12  1  0  0  0
 12 14  1  0  0  0
 14 19  1  0  0  0
 14 15  1  0  0  0
 15 16  1  0  0  0
 16 17  1  0  0  0
 17 18  1  0  0  0
 18 19  1  0  0  0
 12 13  1  0  0  0
M  CHG 1  12   1
M  END
> <minimizedAffinity>
-7.20663

$$$$
ZINC000009356825


 34 39  0  0  0  0  0  0  0  0999 V2000
   -4.3768   14.0838   -8.6484 O   0  0  0  0  0  0  0  0  0  0  0  0
   -5.2908   13.9244   -9.4297 C   0  0  0  0  0  0  0  0  0  0  0  0
   -5.6622   12.7664  -10.0053 N   0  0  0  0  0  0  0  0  0  0  0  0
   -6.7633   12.9281  -10.8508 C   0  0  0  0  0  0  0  0  0  0  0  0
   -7.4570   11.9999  -11.6225 C   0  0  0  0  0  0  0  0  0  0  0  0
   -8.5334   12.3959  -12.3889 C   0  0  0  0  0  0  0  0  0  0  0  0
   -8.9316   13.7221  -12.3950 C   0  0  0  0  0  0  0  0  0  0  0  0
   -9.9874   14.1091  -13.1438 F   0  0  0  0  0  0  0  0  0  0  0  0
   -8.2444   14.6503  -11.6308 C   0  0  0  0  0  0  0  0  0  0  0  0
   -7.1671   14.2616  -10.8656 C   0  0  0  0  0  0  0  0  0  0  0  0
   -6.2348   14.9849   -9.9391 C   0  0  0  0  0  0  0  0  0  0  0  0
   -6.8767   15.7867   -8.8923 C   0  0  0  0  0  0  0  0  0  0  0  0
   -7.8620   15.7013   -7.8400 C   0  0  0  0  0  0  0  0  0  0  0  0
   -8.3007   14.7013   -7.3135 O   0  0  0  0  0  0  0  0  0  0  0  0
   -8.1907   17.0083   -7.5694 N   0  0  0  0  0  0  0  0  0  0  0  0
   -7.7072   17.8768   -8.5142 C   0  0  0  0  0  0  0  0  0  0  0  0
   -7.5316   19.0713   -8.4039 O   0  0  0  0  0  0  0  0  0  0  0  0
   -7.4678   16.9958   -9.7267 C   0  0  0  0  0  0  0  0  0  0  0  0
   -6.2620   17.2807  -10.6265 C   0  0  0  0  0  0  0  0  0  0  0  0
   -6.7896   17.5353  -12.0590 C   0  0  0  0  0  0  0  0  0  0  0  0
   -5.7295   16.8518  -12.9546 C   0  0  0  0  0  0  0  0  0  0  0  0
   -5.3055   15.6321  -12.1110 C   0  0  0  0  0  0  0  0  0  0  0  0
   -5.4494   16.0361  -10.6592 N   0  0  0  0  0  0  0  0  0  0  0  0
   -4.3782   14.0817   -8.6527 H   0  0  0  0  0  0  0  0  0  0  0  0
   -4.3782   14.0817   -8.6527 H   0  0  0  0  0  0  0  0  0  0  0  0
   -8.9372   17.4088   -6.4522 C   0  0  0  0  0  0  0  0  0  0  0  0
  -10.1751   16.8332   -6.2003 C   0  0  0  0  0  0  0  0  0  0  0  0
  -10.9081   17.2294   -5.0986 C   0  0  0  0  0  0  0  0  0  0  0  0
  -10.4101   18.1986   -4.2473 C   0  0  0  0  0  0  0  0  0  0  0  0
   -9.1773   18.7737   -4.4957 C   0  0  0  0  0  0  0  0  0  0  0  0
   -8.4373   18.3775   -5.5926 C   0  0  0  0  0  0  0  0  0  0  0  0
  -11.1980   18.6210   -3.0675 N   0  0  0  0  0  0  0  0  0  0  0  0
  -12.0595   17.8878   -2.6163 O   0  0  0  0  0  0  0  0  0  0  0  0
  -10.9846   19.7018   -2.5480 O   0  0  0  0  0  0  0  0  0  0  0  0
  1  2  2  0  0  0
  2  3  1  0  0  0
  3  4  1  0  0  0
  4 10  2  0  0  0
  4  5  1  0  0  0
  5  6  2  0  0  0
  6  7  1  0  0  0
  7  8  1  0  0  0
  7  9  2  0  0  0
  9 10  1  0  0  0
 10 11  1  0  0  0
 11  2  1  0  0  0
 11 23  1  0  0  0
 11 12  1  0  0  0
 12 18  1  0  0  0
 12 13  1  0  0  0
 13 14  2  0  0  0
 13 15  1  0  0  0
 15 26  1  0  0  0
 15 16  1  0  0  0
 26 31  1  0  0  0
 26 27  2  0  0  0
 27 28  1  0  0  0
 28 29  2  0  0  0
 29 32  1  0  0  0
 29 30  1  0  0  0
 32 33  1  0  0  0
 32 34  2  0  0  0
 30 31  2  0  0  0
 16 17  2  0  0  0
 16 18  1  0  0  0
 18 19  1  0  0  0
 19 23  1  0  0  0
 19 20  1  0  0  0
 20 21  1  0  0  0
 21 22  1  0  0  0
 22 23  1  0  0  0
  3 24  1  0  0  0
 23 25  1  0  0  0
M  CHG 1  23   1
M  CHG 1  32   1
M  CHG 1  33  -1
M  END
> <minimizedAffinity>
-10.07089

$$$$
ZINC000257292662


 31 34  0  0  0  0  0  0  0  0999 V2000
   -7.8174   17.4003   -0.9722 C   0  0  0  0  0  0  0  0  0  0  0  0
   -8.2443   17.1565   -2.3510 N   0  0  0  0  0  0  0  0  0  0  0  0
   -9.3301   16.1307   -2.4062 C   0  0  0  0  0  0  0  0  0  0  0  0
  -10.5930   16.9145   -1.9688 C   0  0  0  0  0  0  0  0  0  0  0  0
  -10.3798   18.2706   -2.6658 C   0  0  0  0  0  0  0  0  0  0  0  0
  -10.6817   19.3520   -1.6238 C   0  0  0  0  0  0  0  0  0  0  0  0
   -8.9002   18.3391   -2.9487 C   0  0  0  0  0  0  0  0  0  0  0  0
   -8.4268   18.4971   -4.3554 C   0  0  0  0  0  0  0  0  0  0  0  0
   -9.4077   19.1161   -5.3059 C   0  0  0  0  0  0  0  0  0  0  0  0
  -10.7209   18.3510   -5.1841 C   0  0  0  0  0  0  0  0  0  0  0  0
  -10.6454   16.8874   -5.6182 C   0  0  0  0  0  0  0  0  0  0  0  0
   -9.5735   16.0781   -5.0317 N   0  0  0  0  0  0  0  0  0  0  0  0
   -8.5786   15.6733   -5.8906 C   0  0  0  0  0  0  0  0  0  0  0  0
   -7.6138   15.0759   -5.4624 O   0  0  0  0  0  0  0  0  0  0  0  0
   -9.5434   15.5096   -3.7254 C   0  0  0  0  0  0  0  0  0  0  0  0
  -11.3229   18.4993   -3.8007 C   0  0  0  0  0  0  0  0  0  0  0  0
  -12.4531   17.6437   -3.6886 O   0  0  0  0  0  0  0  0  0  0  0  0
   -9.1713   16.9747   -2.3102 H   0  0  0  0  0  0  0  0  0  0  0  0
   -9.1713   16.9747   -2.3102 H   0  0  0  0  0  0  0  0  0  0  0  0
   -8.6871   15.9719   -7.3637 C   0  0  0  0  0  0  0  0  0  0  0  0
   -8.4009   14.6994   -8.1657 C   0  0  0  0  0  0  0  0  0  0  0  0
   -8.4541   15.0250   -9.6610 C   0  0  0  0  0  0  0  0  0  0  0  0
   -7.4415   16.1291   -9.9739 C   0  0  0  0  0  0  0  0  0  0  0  0
   -7.7588   17.3247   -9.1826 N   0  0  0  0  0  0  0  0  0  0  0  0
   -7.6684   17.0491   -7.7431 C   0  0  0  0  0  0  0  0  0  0  0  0
   -6.8924   18.4499   -9.5585 C   0  0  0  0  0  0  0  0  0  0  0  0
   -7.6321   19.3586  -10.5062 C   0  0  0  0  0  0  0  0  0  0  0  0
   -8.3674   20.3802  -10.0245 N   0  0  0  0  0  0  0  0  0  0  0  0
   -7.5657   19.1706  -11.7025 O   0  0  0  0  0  0  0  0  0  0  0  0
    0.2281   18.0742  -13.9686 H   0  0  0  0  0  0  0  0  0  0  0  0
    0.2281   18.0742  -13.9686 H   0  0  0  0  0  0  0  0  0  0  0  0
  1  2  1  0  0  0
  2  7  1  0  0  0
  2  3  1  0  0  0
  3 15  1  0  0  0
  3  4  1  0  0  0
  4  5  1  0  0  0
  5 16  1  0  0  0
  5  6  1  0  0  0
  5  7  1  0  0  0
  7  8  1  0  0  0
  8  9  1  0  0  0
  9 10  1  0  0  0
 10 11  1  0  0  0
 10 16  1  0  0  0
 11 12  1  0  0  0
 12 13  1  0  0  0
 12 15  1  0  0  0
 13 14  2  0  0  0
 13 20  1  0  0  0
 20 25  1  0  0  0
 20 21  1  0  0  0
 21 22  1  0  0  0
 22 23  1  0  0  0
 23 24  1  0  0  0
 24 26  1  0  0  0
 24 25  1  0  0  0
 26 27  1  0  0  0
 27 28  1  0  0  0
 27 29  2  0  0  0
 16 17  1  0  0  0
  2 18  1  0  0  0
 28 30  1  0  0  0
 28 31  1  0  0  0
 17 19  1  0  0  0
M  CHG 1   2   1
M  END
> <minimizedAffinity>
-6.51489

$$$$
ZINC000575426469


 25 26  0  0  0  0  0  0  0  0999 V2000
   -7.1664   16.2983   -8.5030 S   0  0  0  0  0  0  0  0  0  0  0  0
   -8.4488   15.9929   -7.9724 O   0  0  0  0  0  0  0  0  0  0  0  0
   -6.0716   16.7149   -7.6986 O   0  0  0  0  0  0  0  0  0  0  0  0
   -7.4130   17.5652   -9.7024 C   0  0  0  0  0  0  0  0  0  0  0  0
   -6.9416   17.3975  -10.9867 C   0  0  0  0  0  0  0  0  0  0  0  0
   -7.1385   18.4034  -11.9371 C   0  0  0  0  0  0  0  0  0  0  0  0
   -7.8129   19.5734  -11.5778 C   0  0  0  0  0  0  0  0  0  0  0  0
   -8.2795   19.7285  -10.2898 C   0  0  0  0  0  0  0  0  0  0  0  0
   -8.0856   18.7256   -9.3541 C   0  0  0  0  0  0  0  0  0  0  0  0
   -8.6767   18.9287   -7.7346 Cl  0  0  0  0  0  0  0  0  0  0  0  0
   -6.6372   18.2305  -13.3131 C   0  0  0  0  0  0  0  0  0  0  0  0
   -6.8978   19.0652  -14.1683 O   0  0  0  0  0  0  0  0  0  0  0  0
   -5.9609   17.2525  -13.5991 O   0  0  0  0  0  0  0  0  0  0  0  0
  -10.8571   20.5331   -9.4847 H   0  0  0  0  0  0  0  0  0  0  0  0
   -5.3061   14.8857   -9.8663 C   0  0  0  0  0  0  0  0  0  0  0  0
   -6.6622   14.9461   -9.3150 N   0  0  0  0  0  0  0  0  0  0  0  0
   -7.5720   13.8101   -9.4820 C   0  0  0  0  0  0  0  0  0  0  0  0
   -8.6350   14.1718  -10.5390 C   0  0  0  0  0  0  0  0  0  0  0  0
   -7.9396   13.4534  -12.0814 S   0  0  0  0  0  0  0  0  0  0  0  0
   -8.9947   13.0296  -12.9337 O   0  0  0  0  0  0  0  0  0  0  0  0
   -6.9090   14.2938  -12.5822 O   0  0  0  0  0  0  0  0  0  0  0  0
   -7.2017   11.9990  -11.2331 C   0  0  0  0  0  0  0  0  0  0  0  0
   -6.7616   12.5818   -9.8777 C   0  0  0  0  0  0  0  0  0  0  0  0
   -6.9236   11.5827   -8.8691 O   0  0  0  0  0  0  0  0  0  0  0  0
   -6.6576   14.9476   -9.3165 H   0  0  0  0  0  0  0  0  0  0  0  0
 15 16  1  0  0  0
 16 17  1  0  0  0
 16  1  1  0  0  0
 17 23  1  0  0  0
 17 18  1  0  0  0
 18 19  1  0  0  0
 19 20  2  0  0  0
 19 21  2  0  0  0
 19 22  1  0  0  0
 22 23  1  0  0  0
 23 24  1  0  0  0
  1  2  2  0  0  0
  1  3  2  0  0  0
  1  4  1  0  0  0
  4  9  1  0  0  0
  4  5  2  0  0  0
  5  6  1  0  0  0
  6 11  1  0  0  0
  6  7  2  0  0  0
 11 12  2  0  0  0
 11 13  1  0  0  0
  7  8  1  0  0  0
  8  9  2  0  0  0
  9 10  1  0  0  0
 24 25  1  0  0  0
 13 14  1  0  0  0
M  END
> <minimizedAffinity>
-8.13306

$$$$
ZINC000005747272


 26 28  0  0  0  0  0  0  0  0999 V2000
   -6.8573   15.8545   -7.4967 S   0  0  0  0  0  0  0  0  0  0  0  0
   -7.2469   14.9097   -6.5093 O   0  0  0  0  0  0  0  0  0  0  0  0
   -5.5168   16.2952   -7.6645 O   0  0  0  0  0  0  0  0  0  0  0  0
   -8.5792   13.5752  -12.8113 C   0  0  0  0  0  0  0  0  0  0  0  0
   -8.1491   14.1445  -11.4838 C   0  0  0  0  0  0  0  0  0  0  0  0
   -9.0148   14.1164  -10.4069 C   0  0  0  0  0  0  0  0  0  0  0  0
   -8.6203   14.6387   -9.1890 C   0  0  0  0  0  0  0  0  0  0  0  0
   -7.3600   15.1884   -9.0485 C   0  0  0  0  0  0  0  0  0  0  0  0
   -6.4934   15.2152  -10.1256 C   0  0  0  0  0  0  0  0  0  0  0  0
   -6.8865   14.6896  -11.3419 C   0  0  0  0  0  0  0  0  0  0  0  0
   -5.9589   14.7183  -12.4951 N   0  0  0  0  0  0  0  0  0  0  0  0
   -5.3859   13.7008  -12.8413 O   0  0  0  0  0  0  0  0  0  0  0  0
   -5.7686   15.7596  -13.0977 O   0  0  0  0  0  0  0  0  0  0  0  0
   -7.7660   17.2126   -7.2286 N   0  0  0  0  0  0  0  0  0  0  0  0
   -7.9572   18.3306   -8.1674 C   0  0  0  0  0  0  0  0  0  0  0  0
   -9.1931   19.0869   -7.6410 C   0  0  0  0  0  0  0  0  0  0  0  0
   -9.1850   18.8225   -6.1893 N   0  0  0  0  0  0  0  0  0  0  0  0
   -9.6818   19.6165   -5.2201 C   0  0  0  0  0  0  0  0  0  0  0  0
   -9.6083   19.2743   -4.0590 O   0  0  0  0  0  0  0  0  0  0  0  0
   -8.5324   17.5178   -6.0139 C   0  0  0  0  0  0  0  0  0  0  0  0
  -10.3286   20.9294   -5.5794 C   0  0  0  0  0  0  0  0  0  0  0  0
   -9.3528   22.0158   -5.4198 N   0  0  0  0  0  0  0  0  0  0  0  0
   -9.2366   22.8144   -6.6668 C   0  0  0  0  0  0  0  0  0  0  0  0
   -8.6250   24.1509   -6.1763 C   0  0  0  0  0  0  0  0  0  0  0  0
   -9.3149   24.3655   -4.8095 C   0  0  0  0  0  0  0  0  0  0  0  0
   -9.7840   22.9657   -4.3714 C   0  0  0  0  0  0  0  0  0  0  0  0
  4  5  1  0  0  0
  5 10  2  0  0  0
  5  6  1  0  0  0
  6  7  2  0  0  0
  7  8  1  0  0  0
  8  1  1  0  0  0
  8  9  2  0  0  0
  1  2  2  0  0  0
  1  3  2  0  0  0
  1 14  1  0  0  0
 14 20  1  0  0  0
 14 15  1  0  0  0
 15 16  1  0  0  0
 16 17  1  0  0  0
 17 18  1  0  0  0
 17 20  1  0  0  0
 18 19  2  0  0  0
 18 21  1  0  0  0
 21 22  1  0  0  0
 22 26  1  0  0  0
 22 23  1  0  0  0
 23 24  1  0  0  0
 24 25  1  0  0  0
 25 26  1  0  0  0
  9 10  1  0  0  0
 10 11  1  0  0  0
 11 12  1  0  0  0
 11 13  2  0  0  0
M  CHG 1  11   1
M  CHG 1  12  -1
M  END
> <minimizedAffinity>
-7.77531

$$$$
ZINC000101138161


 30 30  0  0  0  0  0  0  0  0999 V2000
   -9.0826   17.9323   -6.7686 C   0  0  0  0  0  0  0  0  0  0  0  0
   -8.8987   19.2335   -5.9850 C   0  0  0  0  0  0  0  0  0  0  0  0
  -10.2033   19.5852   -5.2672 C   0  0  0  0  0  0  0  0  0  0  0  0
  -10.5749   18.4571   -4.3027 C   0  0  0  0  0  0  0  0  0  0  0  0
  -11.7934   18.7856   -3.6324 O   0  0  0  0  0  0  0  0  0  0  0  0
  -10.7588   17.1560   -5.0864 C   0  0  0  0  0  0  0  0  0  0  0  0
  -11.1059   16.1023   -4.1856 O   0  0  0  0  0  0  0  0  0  0  0  0
   -9.4542   16.8042   -5.8041 C   0  0  0  0  0  0  0  0  0  0  0  0
   -9.6258   15.5889   -6.5360 O   0  0  0  0  0  0  0  0  0  0  0  0
   -6.8155   15.6966  -10.3883 H   0  0  0  0  0  0  0  0  0  0  0  0
   -6.8155   15.6966  -10.3883 H   0  0  0  0  0  0  0  0  0  0  0  0
   -6.8155   15.6966  -10.3883 H   0  0  0  0  0  0  0  0  0  0  0  0
   -7.6780   17.9000   -8.7595 C   0  0  0  0  0  0  0  0  0  0  0  0
   -8.5742   18.4540   -9.3649 O   0  0  0  0  0  0  0  0  0  0  0  0
   -7.8333   17.5954   -7.4558 N   0  0  0  0  0  0  0  0  0  0  0  0
   -6.4305   17.9527  -10.7943 H   0  0  0  0  0  0  0  0  0  0  0  0
   -6.5300   17.5905   -9.3910 O   0  0  0  0  0  0  0  0  0  0  0  0
   -5.5322   16.1599  -11.0905 C   0  0  0  0  0  0  0  0  0  0  0  0
   -6.3551   16.2088   -9.8014 C   0  0  0  0  0  0  0  0  0  0  0  0
   -7.7247   15.5722  -10.0462 C   0  0  0  0  0  0  0  0  0  0  0  0
   -5.6240   15.4382   -8.7003 C   0  0  0  0  0  0  0  0  0  0  0  0
  -10.0273   20.8310   -4.5169 N   0  0  0  0  0  0  0  0  0  0  0  0
  -10.7313   21.9285   -4.8582 C   0  0  0  0  0  0  0  0  0  0  0  0
  -11.5122   21.8845   -5.7882 O   0  0  0  0  0  0  0  0  0  0  0  0
   -6.2421   14.0032   -7.7113 H   0  0  0  0  0  0  0  0  0  0  0  0
  -10.5696   23.0735   -4.1686 O   0  0  0  0  0  0  0  0  0  0  0  0
   -9.4061   23.8794   -4.4926 C   0  0  0  0  0  0  0  0  0  0  0  0
   -8.3243   23.6627   -3.4326 C   0  0  0  0  0  0  0  0  0  0  0  0
   -8.8664   23.4677   -5.8638 C   0  0  0  0  0  0  0  0  0  0  0  0
   -9.8017   25.3571   -4.5230 C   0  0  0  0  0  0  0  0  0  0  0  0
 18 19  1  0  0  0
 19 20  1  0  0  0
 19 21  1  0  0  0
 19 17  1  0  0  0
 17 13  1  0  0  0
 13 14  2  0  0  0
 13 15  1  0  0  0
 15  1  1  0  0  0
  1  8  1  0  0  0
  1  2  1  0  0  0
  2  3  1  0  0  0
  3 22  1  0  0  0
  3  4  1  0  0  0
 22 23  1  0  0  0
 23 24  2  0  0  0
 23 26  1  0  0  0
 26 27  1  0  0  0
 27 28  1  0  0  0
 27 29  1  0  0  0
 27 30  1  0  0  0
  4  5  1  0  0  0
  4  6  1  0  0  0
  6  7  1  0  0  0
  6  8  1  0  0  0
  8  9  1  0  0  0
 15 16  1  0  0  0
 22 25  1  0  0  0
  5 10  1  0  0  0
  7 11  1  0  0  0
  9 12  1  0  0  0
M  END
> <minimizedAffinity>
-6.59212

$$$$
ZINC000072390497


 33 36  0  0  0  0  0  0  0  0999 V2000
   -8.1498   16.7922   -6.9325 C   0  0  0  0  0  0  0  0  0  0  0  0
   -8.0237   18.3126   -6.8023 C   0  0  0  0  0  0  0  0  0  0  0  0
   -8.6413   18.7590   -5.4752 C   0  0  0  0  0  0  0  0  0  0  0  0
  -10.0544   18.3617   -5.4332 N   0  0  0  0  0  0  0  0  0  0  0  0
  -10.1981   16.9023   -5.5089 C   0  0  0  0  0  0  0  0  0  0  0  0
   -9.6270   16.4004   -6.8371 C   0  0  0  0  0  0  0  0  0  0  0  0
   -6.3091   16.0437   -8.3427 C   0  0  0  0  0  0  0  0  0  0  0  0
   -5.5805   16.1077   -7.3752 O   0  0  0  0  0  0  0  0  0  0  0  0
   -7.6127   16.3654   -8.2269 N   0  0  0  0  0  0  0  0  0  0  0  0
   -2.4093   14.4398  -12.2488 H   0  0  0  0  0  0  0  0  0  0  0  0
   -6.6006   14.5925  -11.6775 N   0  0  0  0  0  0  0  0  0  0  0  0
   -6.5394   14.3921  -10.2249 C   0  0  0  0  0  0  0  0  0  0  0  0
   -5.7566   15.6048   -9.6743 C   0  0  0  0  0  0  0  0  0  0  0  0
   -6.0208   16.6711  -10.7625 C   0  0  0  0  0  0  0  0  0  0  0  0
   -6.3135   15.8635  -12.0077 C   0  0  0  0  0  0  0  0  0  0  0  0
   -6.2986   16.3008  -13.1389 O   0  0  0  0  0  0  0  0  0  0  0  0
   -6.9266   13.5408  -12.6439 C   0  0  0  0  0  0  0  0  0  0  0  0
   -9.3488   13.7802  -12.8359 C   0  0  0  0  0  0  0  0  0  0  0  0
   -8.3372   13.0644  -12.4112 C   0  0  0  0  0  0  0  0  0  0  0  0
  -10.7156   18.8943   -4.2343 C   0  0  0  0  0  0  0  0  0  0  0  0
  -10.1920   20.2773   -3.9444 C   0  0  0  0  0  0  0  0  0  0  0  0
  -10.4417   21.3893   -4.6695 C   0  0  0  0  0  0  0  0  0  0  0  0
   -9.7658   22.4637   -4.0589 C   0  0  0  0  0  0  0  0  0  0  0  0
   -9.1348   21.9971   -3.0022 N   0  0  0  0  0  0  0  0  0  0  0  0
   -9.3953   20.6240   -2.9105 N   0  0  0  0  0  0  0  0  0  0  0  0
   -8.8848   19.7192   -1.8777 C   0  0  0  0  0  0  0  0  0  0  0  0
   -9.7659   23.8729   -4.5243 C   0  0  0  0  0  0  0  0  0  0  0  0
   -9.7990   24.9143   -3.6002 C   0  0  0  0  0  0  0  0  0  0  0  0
   -9.7984   26.2235   -4.0381 C   0  0  0  0  0  0  0  0  0  0  0  0
   -9.7653   26.5034   -5.3923 C   0  0  0  0  0  0  0  0  0  0  0  0
   -9.7327   25.4748   -6.3160 C   0  0  0  0  0  0  0  0  0  0  0  0
   -9.7267   24.1599   -5.8894 C   0  0  0  0  0  0  0  0  0  0  0  0
   -9.6949   23.1551   -6.7920 F   0  0  0  0  0  0  0  0  0  0  0  0
 18 19  2  0  0  0
 19 17  1  0  0  0
 17 11  1  0  0  0
 11 15  1  0  0  0
 11 12  1  0  0  0
 12 13  1  0  0  0
 13  7  1  0  0  0
 13 14  1  0  0  0
  7  8  2  0  0  0
  7  9  1  0  0  0
  9  1  1  0  0  0
  1  6  1  0  0  0
  1  2  1  0  0  0
  2  3  1  0  0  0
  3  4  1  0  0  0
  4 20  1  0  0  0
  4  5  1  0  0  0
 20 21  1  0  0  0
 21 25  1  0  0  0
 21 22  2  0  0  0
 22 23  1  0  0  0
 23 27  1  0  0  0
 23 24  2  0  0  0
 27 32  1  0  0  0
 27 28  2  0  0  0
 28 29  1  0  0  0
 29 30  2  0  0  0
 30 31  1  0  0  0
 31 32  2  0  0  0
 32 33  1  0  0  0
 24 25  1  0  0  0
 25 26  1  0  0  0
  5  6  1  0  0  0
 14 15  1  0  0  0
 15 16  2  0  0  0
  9 10  1  0  0  0
M  END
> <minimizedAffinity>
-7.86759

$$$$
ZINC000253532057


 24 25  0  0  0  0  0  0  0  0999 V2000
   -5.5659   10.7472   -9.4413 O   0  0  0  0  0  0  0  0  0  0  0  0
   -5.9000   11.7872   -9.9753 C   0  0  0  0  0  0  0  0  0  0  0  0
   -5.3503   12.1256  -11.1542 N   0  0  0  0  0  0  0  0  0  0  0  0
   -5.6961   13.2704  -11.7753 C   0  0  0  0  0  0  0  0  0  0  0  0
   -5.1917   13.5670  -12.8440 O   0  0  0  0  0  0  0  0  0  0  0  0
   -6.6535   14.1262  -11.1731 C   0  0  0  0  0  0  0  0  0  0  0  0
   -7.2076   13.7503   -9.9499 C   0  0  0  0  0  0  0  0  0  0  0  0
   -6.8148   12.5689   -9.3752 N   0  0  0  0  0  0  0  0  0  0  0  0
   -5.5645   10.7592   -9.4282 H   0  0  0  0  0  0  0  0  0  0  0  0
   -5.5645   10.7592   -9.4282 H   0  0  0  0  0  0  0  0  0  0  0  0
   -7.0246   15.2924  -11.7779 N   0  0  0  0  0  0  0  0  0  0  0  0
   -6.3872   16.3965  -11.5104 C   0  0  0  0  0  0  0  0  0  0  0  0
   -6.8526   17.6721  -12.0806 C   0  0  0  0  0  0  0  0  0  0  0  0
   -6.5886   17.9817  -13.4181 C   0  0  0  0  0  0  0  0  0  0  0  0
   -7.0275   19.1782  -13.9448 C   0  0  0  0  0  0  0  0  0  0  0  0
   -7.7279   20.0714  -13.1531 C   0  0  0  0  0  0  0  0  0  0  0  0
   -7.9931   19.7720  -11.8282 C   0  0  0  0  0  0  0  0  0  0  0  0
   -7.5657   18.5770  -11.2887 C   0  0  0  0  0  0  0  0  0  0  0  0
   -8.1345   14.5467   -9.3343 N   0  0  0  0  0  0  0  0  0  0  0  0
   -3.9989   12.5856   -9.4337 H   0  0  0  0  0  0  0  0  0  0  0  0
   -7.8242   15.1700   -8.0453 C   0  0  0  0  0  0  0  0  0  0  0  0
   -9.1246   15.5803   -7.3511 C   0  0  0  0  0  0  0  0  0  0  0  0
   -9.4851   14.5867   -6.3894 O   0  0  0  0  0  0  0  0  0  0  0  0
   -3.6847   13.9649  -10.2021 H   0  0  0  0  0  0  0  0  0  0  0  0
  1  2  2  0  0  0
  2  8  1  0  0  0
  2  3  1  0  0  0
  3  4  1  0  0  0
  4  5  2  0  0  0
  4  6  1  0  0  0
  6 11  1  0  0  0
  6  7  2  0  0  0
 11 12  2  0  0  0
 12 13  1  0  0  0
 13 18  1  0  0  0
 13 14  2  0  0  0
 14 15  1  0  0  0
 15 16  2  0  0  0
 16 17  1  0  0  0
 17 18  2  0  0  0
  7 19  1  0  0  0
  7  8  1  0  0  0
 19 21  1  0  0  0
 21 22  1  0  0  0
 22 23  1  0  0  0
  3  9  1  0  0  0
 19 20  1  0  0  0
 23 24  1  0  0  0
  8 10  1  0  0  0
M  END
> <minimizedAffinity>
-7.26789

$$$$
ZINC000024204464


 27 30  0  0  0  0  0  0  0  0999 V2000
   -7.8982   15.9564   -9.0626 C   0  0  0  0  0  0  0  0  0  0  0  0
   -7.2377   17.1744   -8.5867 N   0  0  0  0  0  0  0  0  0  0  0  0
   -5.4370   19.8778   -7.1707 H   0  0  0  0  0  0  0  0  0  0  0  0
   -8.5086   19.2170   -8.1179 C   0  0  0  0  0  0  0  0  0  0  0  0
   -7.9242   18.0606   -7.7422 C   0  0  0  0  0  0  0  0  0  0  0  0
   -8.1114   17.9031   -6.4222 N   0  0  0  0  0  0  0  0  0  0  0  0
   -8.7951   18.9254   -5.9603 C   0  0  0  0  0  0  0  0  0  0  0  0
   -9.5113   19.6417   -4.5086 S   0  0  0  0  0  0  0  0  0  0  0  0
  -10.1469   21.0611   -5.3591 C   0  0  0  0  0  0  0  0  0  0  0  0
   -9.7922   20.9061   -6.6226 C   0  0  0  0  0  0  0  0  0  0  0  0
   -9.0701   19.7889   -6.9744 N   0  0  0  0  0  0  0  0  0  0  0  0
   -7.6250   20.4768   -9.8898 O   0  0  0  0  0  0  0  0  0  0  0  0
   -8.5431   19.7813   -9.4936 N   0  0  0  0  0  0  0  0  0  0  0  0
   -9.4870   19.5439  -10.2258 O   0  0  0  0  0  0  0  0  0  0  0  0
   -7.5260   15.7134  -10.5267 C   0  0  0  0  0  0  0  0  0  0  0  0
   -7.1103   14.3152  -10.7007 N   0  0  0  0  0  0  0  0  0  0  0  0
   -8.1328   13.5919  -11.4689 C   0  0  0  0  0  0  0  0  0  0  0  0
   -7.6973   12.1356  -11.6490 C   0  0  0  0  0  0  0  0  0  0  0  0
   -7.4892   11.5433  -10.3637 O   0  0  0  0  0  0  0  0  0  0  0  0
   -6.5179   12.2274   -9.5672 C   0  0  0  0  0  0  0  0  0  0  0  0
   -6.9511   13.6840   -9.3833 C   0  0  0  0  0  0  0  0  0  0  0  0
   -2.9669   16.3154  -13.8628 H   0  0  0  0  0  0  0  0  0  0  0  0
   -6.3746   16.6406  -10.9208 C   0  0  0  0  0  0  0  0  0  0  0  0
   -6.8489   17.6797  -11.9657 C   0  0  0  0  0  0  0  0  0  0  0  0
   -5.6420   17.7387  -12.9362 C   0  0  0  0  0  0  0  0  0  0  0  0
   -5.1826   16.3708  -12.9859 O   0  0  0  0  0  0  0  0  0  0  0  0
   -5.2688   15.8492  -11.6458 C   0  0  0  0  0  0  0  0  0  0  0  0
 12 13  1  0  0  0
 13 14  2  0  0  0
 13  4  1  0  0  0
  4 11  1  0  0  0
  4  5  2  0  0  0
  5  2  1  0  0  0
  5  6  1  0  0  0
  2  1  1  0  0  0
  1 15  1  0  0  0
 15 23  1  0  0  0
 15 16  1  0  0  0
 23 27  1  0  0  0
 23 24  1  0  0  0
 24 25  1  0  0  0
 25 26  1  0  0  0
 26 27  1  0  0  0
 16 21  1  0  0  0
 16 17  1  0  0  0
 17 18  1  0  0  0
 18 19  1  0  0  0
 19 20  1  0  0  0
 20 21  1  0  0  0
  6  7  2  0  0  0
  7 11  1  0  0  0
  7  8  1  0  0  0
  8  9  1  0  0  0
  9 10  2  0  0  0
 10 11  1  0  0  0
  2  3  1  0  0  0
 16 22  1  0  0  0
M  CHG 1  12  -1
M  CHG 1  13   1
M  CHG 1  16   1
M  END
> <minimizedAffinity>
-7.39835

$$$$
ZINC000096196940


 25 28  0  0  0  0  0  0  0  0999 V2000
   -8.4485   17.2711   -7.4209 N   0  0  0  0  0  0  0  0  0  0  0  0
   -9.4125   16.3886   -8.0811 C   0  0  0  0  0  0  0  0  0  0  0  0
   -8.9871   14.9298   -7.8943 C   0  0  0  0  0  0  0  0  0  0  0  0
   -8.0555   14.5424   -9.0163 C   0  0  0  0  0  0  0  0  0  0  0  0
   -8.1063   13.4528   -9.7294 N   0  0  0  0  0  0  0  0  0  0  0  0
   -7.0963   13.4544  -10.6130 C   0  0  0  0  0  0  0  0  0  0  0  0
   -6.3981   14.5950  -10.4470 C   0  0  0  0  0  0  0  0  0  0  0  0
   -7.0124   15.2904   -9.4446 N   0  0  0  0  0  0  0  0  0  0  0  0
   -6.6348   16.6102   -8.9337 C   0  0  0  0  0  0  0  0  0  0  0  0
   -7.0834   16.7370   -7.4757 C   0  0  0  0  0  0  0  0  0  0  0  0
   -8.5060   18.6275   -7.9820 C   0  0  0  0  0  0  0  0  0  0  0  0
   -9.4945   21.8286   -6.2215 C   0  0  0  0  0  0  0  0  0  0  0  0
   -9.7377   21.3637   -4.9277 C   0  0  0  0  0  0  0  0  0  0  0  0
   -9.5803   20.0239   -4.6386 C   0  0  0  0  0  0  0  0  0  0  0  0
   -9.1820   19.1419   -5.6272 C   0  0  0  0  0  0  0  0  0  0  0  0
   -8.9391   19.5959   -6.9117 C   0  0  0  0  0  0  0  0  0  0  0  0
   -9.0987   20.9317   -7.2161 C   0  0  0  0  0  0  0  0  0  0  0  0
   -9.7837   24.3201   -6.7725 N   0  0  0  0  0  0  0  0  0  0  0  0
   -9.6558   23.2180   -6.5288 C   0  0  0  0  0  0  0  0  0  0  0  0
   -5.1758   15.0212  -11.2186 C   0  0  0  0  0  0  0  0  0  0  0  0
   -5.5115   16.1625  -12.0736 N   0  0  0  0  0  0  0  0  0  0  0  0
   -4.8902   17.3604  -12.0788 C   0  0  0  0  0  0  0  0  0  0  0  0
   -5.4972   18.1358  -13.0069 C   0  0  0  0  0  0  0  0  0  0  0  0
   -6.5247   17.3861  -13.5887 C   0  0  0  0  0  0  0  0  0  0  0  0
   -6.5303   16.2010  -13.0342 N   0  0  0  0  0  0  0  0  0  0  0  0
 18 19  3  0  0  0
 19 12  1  0  0  0
 12 17  2  0  0  0
 12 13  1  0  0  0
 13 14  2  0  0  0
 14 15  1  0  0  0
 15 16  2  0  0  0
 16 11  1  0  0  0
 16 17  1  0  0  0
 11  1  1  0  0  0
  1 10  1  0  0  0
  1  2  1  0  0  0
  2  3  1  0  0  0
  3  4  1  0  0  0
  4  8  1  0  0  0
  4  5  2  0  0  0
  5  6  1  0  0  0
  6  7  2  0  0  0
  7 20  1  0  0  0
  7  8  1  0  0  0
 20 21  1  0  0  0
 21 25  1  0  0  0
 21 22  1  0  0  0
 22 23  2  0  0  0
 23 24  1  0  0  0
 24 25  2  0  0  0
  8  9  1  0  0  0
  9 10  1  0  0  0
M  END
> <minimizedAffinity>
-7.56851

$$$$
ZINC000101652923


 26 27  0  0  0  0  0  0  0  0999 V2000
   -7.3956   16.3571  -10.1631 C   0  0  0  0  0  0  0  0  0  0  0  0
   -6.8162   17.1139  -11.1866 C   0  0  0  0  0  0  0  0  0  0  0  0
   -6.8126   18.4910  -11.1075 C   0  0  0  0  0  0  0  0  0  0  0  0
   -7.3801   19.1277  -10.0192 C   0  0  0  0  0  0  0  0  0  0  0  0
   -7.9584   18.3853   -8.9959 C   0  0  0  0  0  0  0  0  0  0  0  0
   -7.9736   17.0023   -9.0662 C   0  0  0  0  0  0  0  0  0  0  0  0
   -8.5321   19.0374   -7.8952 N   0  0  0  0  0  0  0  0  0  0  0  0
   -8.7728   18.4898   -6.6825 C   0  0  0  0  0  0  0  0  0  0  0  0
   -9.3311   19.4449   -5.9031 C   0  0  0  0  0  0  0  0  0  0  0  0
   -9.4355   20.6148   -6.6634 C   0  0  0  0  0  0  0  0  0  0  0  0
   -8.9520   20.3733   -7.8553 N   0  0  0  0  0  0  0  0  0  0  0  0
  -10.0013   21.9286   -6.1893 C   0  0  0  0  0  0  0  0  0  0  0  0
   -9.6887   22.9315   -7.1133 F   0  0  0  0  0  0  0  0  0  0  0  0
  -11.3911   21.8217   -6.0695 F   0  0  0  0  0  0  0  0  0  0  0  0
   -9.4494   22.2523   -4.9452 F   0  0  0  0  0  0  0  0  0  0  0  0
   -6.5342   14.1439   -9.4543 C   0  0  0  0  0  0  0  0  0  0  0  0
   -7.4022   14.8864  -10.2437 C   0  0  0  0  0  0  0  0  0  0  0  0
   -8.2514   14.2609  -11.0845 O   0  0  0  0  0  0  0  0  0  0  0  0
   -9.9154   12.1756  -10.1534 H   0  0  0  0  0  0  0  0  0  0  0  0
   -5.5454   10.7181  -10.7389 C   0  0  0  0  0  0  0  0  0  0  0  0
   -5.6320   12.1703  -10.5662 N   0  0  0  0  0  0  0  0  0  0  0  0
   -6.4475   12.6897   -9.6272 C   0  0  0  0  0  0  0  0  0  0  0  0
   -7.1118   11.9525   -8.9229 O   0  0  0  0  0  0  0  0  0  0  0  0
   -6.5978   11.9002   -6.1745 H   0  0  0  0  0  0  0  0  0  0  0  0
   -5.7238   14.7977   -8.4713 C   0  0  0  0  0  0  0  0  0  0  0  0
   -5.0807   15.3164   -7.6915 N   0  0  0  0  0  0  0  0  0  0  0  0
 20 21  1  0  0  0
 21 22  1  0  0  0
 22 23  2  0  0  0
 22 16  1  0  0  0
 16 25  1  0  0  0
 16 17  2  0  0  0
 25 26  3  0  0  0
 17 18  1  0  0  0
 17  1  1  0  0  0
  1  6  2  0  0  0
  1  2  1  0  0  0
  2  3  2  0  0  0
  3  4  1  0  0  0
  4  5  2  0  0  0
  5  7  1  0  0  0
  5  6  1  0  0  0
  7 11  1  0  0  0
  7  8  1  0  0  0
  8  9  2  0  0  0
  9 10  1  0  0  0
 10 12  1  0  0  0
 10 11  2  0  0  0
 12 13  1  0  0  0
 12 14  1  0  0  0
 12 15  1  0  0  0
 21 24  1  0  0  0
 18 19  1  0  0  0
M  END
> <minimizedAffinity>
-7.73431

$$$$
ZINC000016649723


 24 24  0  0  0  0  0  0  0  0999 V2000
   -6.8634   18.0369  -11.0049 C   0  0  0  0  0  0  0  0  0  0  0  0
   -6.5909   17.6790  -12.3165 C   0  0  0  0  0  0  0  0  0  0  0  0
   -6.3316   16.3604  -12.6346 C   0  0  0  0  0  0  0  0  0  0  0  0
   -6.3408   15.3870  -11.6494 C   0  0  0  0  0  0  0  0  0  0  0  0
   -6.6089   15.7252  -10.3404 C   0  0  0  0  0  0  0  0  0  0  0  0
   -6.8681   17.0557  -10.0039 C   0  0  0  0  0  0  0  0  0  0  0  0
   -7.1553   17.4247   -8.6045 C   0  0  0  0  0  0  0  0  0  0  0  0
   -6.2609   17.4272   -7.7808 O   0  0  0  0  0  0  0  0  0  0  0  0
   -8.4088   17.7591   -8.2394 N   0  0  0  0  0  0  0  0  0  0  0  0
   -4.5561   16.7236   -9.4804 H   0  0  0  0  0  0  0  0  0  0  0  0
   -8.6938   18.1255   -6.8499 C   0  0  0  0  0  0  0  0  0  0  0  0
   -9.1148   19.5950   -6.7861 C   0  0  0  0  0  0  0  0  0  0  0  0
   -9.8084   17.2602   -6.3208 C   0  0  0  0  0  0  0  0  0  0  0  0
  -10.3501   17.5416   -5.2654 O   0  0  0  0  0  0  0  0  0  0  0  0
  -10.1684   16.2786   -6.9481 O   0  0  0  0  0  0  0  0  0  0  0  0
   -6.7354   22.8213   -7.1963 H   0  0  0  0  0  0  0  0  0  0  0  0
   -6.0080   13.7090  -12.0712 S   0  0  0  0  0  0  0  0  0  0  0  0
   -5.5589   13.7156  -13.4194 O   0  0  0  0  0  0  0  0  0  0  0  0
   -5.2449   13.1698  -11.0006 O   0  0  0  0  0  0  0  0  0  0  0  0
   -7.4559   12.9054  -12.0646 N   0  0  0  0  0  0  0  0  0  0  0  0
   -7.5484   11.5674  -11.4751 C   0  0  0  0  0  0  0  0  0  0  0  0
   -8.6443   13.5325  -12.6482 C   0  0  0  0  0  0  0  0  0  0  0  0
   -8.3111   19.9067  -11.2293 C   0  0  0  0  0  0  0  0  0  0  0  0
   -7.1188   19.3317  -10.6910 O   0  0  0  0  0  0  0  0  0  0  0  0
 23 24  1  0  0  0
 24  1  1  0  0  0
  1  6  2  0  0  0
  1  2  1  0  0  0
  2  3  2  0  0  0
  3  4  1  0  0  0
  4 17  1  0  0  0
  4  5  2  0  0  0
 17 18  2  0  0  0
 17 19  2  0  0  0
 17 20  1  0  0  0
 20 21  1  0  0  0
 20 22  1  0  0  0
  5  6  1  0  0  0
  6  7  1  0  0  0
  7  8  2  0  0  0
  7  9  1  0  0  0
  9 11  1  0  0  0
 11 12  1  0  0  0
 11 13  1  0  0  0
 13 14  2  0  0  0
 13 15  1  0  0  0
  9 10  1  0  0  0
 15 16  1  0  0  0
M  END
> <minimizedAffinity>
-7.31633

$$$$
ZINC000670460954


 29 31  0  0  0  0  0  0  0  0999 V2000
   -6.5572   15.2696   -7.4857 C   0  0  0  0  0  0  0  0  0  0  0  0
   -5.4152   15.4522   -7.1062 O   0  0  0  0  0  0  0  0  0  0  0  0
   -6.8203   14.3090   -8.3937 N   0  0  0  0  0  0  0  0  0  0  0  0
  -13.6891   17.4795   -6.8613 H   0  0  0  0  0  0  0  0  0  0  0  0
   -5.7316   13.4845   -8.9241 C   0  0  0  0  0  0  0  0  0  0  0  0
   -6.2945   12.1463   -9.4115 C   0  0  0  0  0  0  0  0  0  0  0  0
   -7.2697   12.4033  -10.5638 C   0  0  0  0  0  0  0  0  0  0  0  0
   -6.5474   13.1679  -11.6753 C   0  0  0  0  0  0  0  0  0  0  0  0
   -6.0561   14.4487  -11.1533 N   0  0  0  0  0  0  0  0  0  0  0  0
   -5.0657   14.2096  -10.0955 C   0  0  0  0  0  0  0  0  0  0  0  0
  -12.5341   19.4233   -7.5122 H   0  0  0  0  0  0  0  0  0  0  0  0
   -5.4307   15.2118  -12.2417 C   0  0  0  0  0  0  0  0  0  0  0  0
   -6.0425   16.5875  -12.3067 C   0  0  0  0  0  0  0  0  0  0  0  0
   -6.0609   17.3708  -13.3863 C   0  0  0  0  0  0  0  0  0  0  0  0
   -6.6808   18.5954  -13.2079 C   0  0  0  0  0  0  0  0  0  0  0  0
   -7.1659   18.8068  -11.9834 C   0  0  0  0  0  0  0  0  0  0  0  0
   -6.8482   17.4029  -10.9727 S   0  0  0  0  0  0  0  0  0  0  0  0
   -8.8256   17.8547   -6.3695 C   0  0  0  0  0  0  0  0  0  0  0  0
   -9.5674   16.7439   -6.0306 C   0  0  0  0  0  0  0  0  0  0  0  0
   -8.8177   15.6246   -6.4030 C   0  0  0  0  0  0  0  0  0  0  0  0
   -7.6459   16.0941   -6.9553 C   0  0  0  0  0  0  0  0  0  0  0  0
   -7.6748   17.4430   -6.9296 O   0  0  0  0  0  0  0  0  0  0  0  0
   -9.5378   20.3337   -5.9979 C   0  0  0  0  0  0  0  0  0  0  0  0
   -9.2169   19.2169   -6.1653 C   0  0  0  0  0  0  0  0  0  0  0  0
   -9.1507   22.6391   -6.7360 C   0  0  0  0  0  0  0  0  0  0  0  0
   -9.9402   21.7340   -5.7880 C   0  0  0  0  0  0  0  0  0  0  0  0
   -9.6513   22.1362   -4.3404 C   0  0  0  0  0  0  0  0  0  0  0  0
  -11.3380   21.8726   -6.0511 O   0  0  0  0  0  0  0  0  0  0  0  0
   -9.9397   21.7356   -5.7928 H   0  0  0  0  0  0  0  0  0  0  0  0
 25 26  1  0  0  0
 26 27  1  0  0  0
 26 28  1  0  0  0
 26 23  1  0  0  0
 23 24  3  0  0  0
 24 18  1  0  0  0
 18 22  1  0  0  0
 18 19  2  0  0  0
 19 20  1  0  0  0
 20 21  2  0  0  0
 21  1  1  0  0  0
 21 22  1  0  0  0
  1  2  2  0  0  0
  1  3  1  0  0  0
  3  5  1  0  0  0
  5 10  1  0  0  0
  5  6  1  0  0  0
  6  7  1  0  0  0
  7  8  1  0  0  0
  8  9  1  0  0  0
  9 12  1  0  0  0
  9 10  1  0  0  0
 12 13  1  0  0  0
 13 17  1  0  0  0
 13 14  2  0  0  0
 14 15  1  0  0  0
 15 16  2  0  0  0
 16 17  1  0  0  0
 28 29  1  0  0  0
  3  4  1  0  0  0
  9 11  1  0  0  0
M  CHG 1   9   1
M  END
> <minimizedAffinity>
-7.49487

$$$$
ZINC000036038181


 32 34  0  0  0  0  0  0  0  0999 V2000
   -9.7594   21.5112   -5.1993 N   0  0  0  0  0  0  0  0  0  0  0  0
   -9.3979   21.4520   -6.4964 C   0  0  0  0  0  0  0  0  0  0  0  0
   -9.3818   22.4641   -7.1697 O   0  0  0  0  0  0  0  0  0  0  0  0
  -11.9811   24.2156   -4.9748 H   0  0  0  0  0  0  0  0  0  0  0  0
   -9.0214   20.1576   -7.0996 C   0  0  0  0  0  0  0  0  0  0  0  0
   -8.9890   20.0174   -8.4897 C   0  0  0  0  0  0  0  0  0  0  0  0
   -8.6379   18.8115   -9.0516 C   0  0  0  0  0  0  0  0  0  0  0  0
   -8.3141   17.7270   -8.2324 C   0  0  0  0  0  0  0  0  0  0  0  0
   -8.3460   17.8670   -6.8427 C   0  0  0  0  0  0  0  0  0  0  0  0
   -8.6920   19.0744   -6.2805 C   0  0  0  0  0  0  0  0  0  0  0  0
   -7.9491   16.4720   -8.8173 C   0  0  0  0  0  0  0  0  0  0  0  0
   -7.6499   15.4429   -9.2970 C   0  0  0  0  0  0  0  0  0  0  0  0
   -7.2747   14.1528   -9.8983 C   0  0  0  0  0  0  0  0  0  0  0  0
   -7.6291   13.0918   -9.0091 O   0  0  0  0  0  0  0  0  0  0  0  0
   -8.0146   13.9745  -11.2256 C   0  0  0  0  0  0  0  0  0  0  0  0
   -7.6352   15.1105  -12.1776 C   0  0  0  0  0  0  0  0  0  0  0  0
   -6.1260   15.0839  -12.4274 C   0  0  0  0  0  0  0  0  0  0  0  0
   -5.3861   15.2623  -11.1002 C   0  0  0  0  0  0  0  0  0  0  0  0
   -5.7655   14.1263  -10.1481 C   0  0  0  0  0  0  0  0  0  0  0  0
  -11.0561   25.1765   -6.4590 H   0  0  0  0  0  0  0  0  0  0  0  0
  -10.1328   22.7952   -4.6009 C   0  0  0  0  0  0  0  0  0  0  0  0
  -12.4266   23.1224   -4.1248 O   0  0  0  0  0  0  0  0  0  0  0  0
  -11.3756   22.6183   -3.7672 C   0  0  0  0  0  0  0  0  0  0  0  0
  -11.3313   21.9670   -2.7375 O   0  0  0  0  0  0  0  0  0  0  0  0
  -12.4226   23.1198   -4.1263 H   0  0  0  0  0  0  0  0  0  0  0  0
   -8.9909   23.2961   -3.7144 C   0  0  0  0  0  0  0  0  0  0  0  0
   -9.1884   24.7610   -3.4207 C   0  0  0  0  0  0  0  0  0  0  0  0
   -8.9880   25.3772   -2.2400 C   0  0  0  0  0  0  0  0  0  0  0  0
   -9.2753   26.6780   -2.3969 N   0  0  0  0  0  0  0  0  0  0  0  0
   -9.6462   26.8912   -3.6298 C   0  0  0  0  0  0  0  0  0  0  0  0
   -9.6002   25.7220   -4.3041 N   0  0  0  0  0  0  0  0  0  0  0  0
   -7.4592   21.2857   -5.6347 H   0  0  0  0  0  0  0  0  0  0  0  0
 22 23  2  0  0  0
 23 24  1  0  0  0
 23 21  1  0  0  0
 21 26  1  0  0  0
 21  1  1  0  0  0
 26 27  1  0  0  0
 27 31  1  0  0  0
 27 28  2  0  0  0
 28 29  1  0  0  0
 29 30  2  0  0  0
 30 31  1  0  0  0
  1  2  1  0  0  0
  2  3  2  0  0  0
  2  5  1  0  0  0
  5 10  1  0  0  0
  5  6  2  0  0  0
  6  7  1  0  0  0
  7  8  2  0  0  0
  8 11  1  0  0  0
  8  9  1  0  0  0
 11 12  3  0  0  0
 12 13  1  0  0  0
 13 19  1  0  0  0
 13 14  1  0  0  0
 13 15  1  0  0  0
 15 16  1  0  0  0
 16 17  1  0  0  0
 17 18  1  0  0  0
 18 19  1  0  0  0
  9 10  2  0  0  0
 24 25  1  0  0  0
 31 32  1  0  0  0
  1  4  1  0  0  0
 14 20  1  0  0  0
M  END
> <minimizedAffinity>
-8.00477

$$$$
ZINC000019561187


 30 33  0  0  0  0  0  0  0  0999 V2000
   -7.7063   18.3239   -9.6659 N   0  0  0  0  0  0  0  0  0  0  0  0
   -7.1205   19.0890  -10.7969 C   0  0  0  0  0  0  0  0  0  0  0  0
   -6.1055   18.1179  -11.4391 C   0  0  0  0  0  0  0  0  0  0  0  0
   -6.5956   16.7124  -11.0456 C   0  0  0  0  0  0  0  0  0  0  0  0
   -7.8616   16.9448  -10.1975 C   0  0  0  0  0  0  0  0  0  0  0  0
   -6.9494   15.9146  -12.2945 C   0  0  0  0  0  0  0  0  0  0  0  0
   -7.2524   14.4857  -11.9259 C   0  0  0  0  0  0  0  0  0  0  0  0
   -8.1742   13.7560  -12.6446 C   0  0  0  0  0  0  0  0  0  0  0  0
   -8.4323   12.4394  -12.3037 C   0  0  0  0  0  0  0  0  0  0  0  0
   -7.7683   11.8477  -11.2440 C   0  0  0  0  0  0  0  0  0  0  0  0
   -6.8464   12.5702  -10.5128 C   0  0  0  0  0  0  0  0  0  0  0  0
   -6.5888   13.8972  -10.8464 C   0  0  0  0  0  0  0  0  0  0  0  0
   -5.6115   14.6987  -10.0795 C   0  0  0  0  0  0  0  0  0  0  0  0
   -4.8431   14.1575   -9.3087 O   0  0  0  0  0  0  0  0  0  0  0  0
   -5.5814   16.0361  -10.2445 N   0  0  0  0  0  0  0  0  0  0  0  0
   -8.4194   24.3837   -8.1587 H   0  0  0  0  0  0  0  0  0  0  0  0
   -6.1066   18.2773  -12.9608 C   0  0  0  0  0  0  0  0  0  0  0  0
   -7.0949   19.2378  -13.3385 O   0  0  0  0  0  0  0  0  0  0  0  0
  -13.0707   18.0262   -8.8212 H   0  0  0  0  0  0  0  0  0  0  0  0
   -9.0047   18.8841   -9.2679 C   0  0  0  0  0  0  0  0  0  0  0  0
   -9.0270   19.5607   -5.0453 C   0  0  0  0  0  0  0  0  0  0  0  0
   -8.6509   18.3268   -5.5499 C   0  0  0  0  0  0  0  0  0  0  0  0
   -8.6450   18.1109   -6.9158 C   0  0  0  0  0  0  0  0  0  0  0  0
   -9.0134   19.1244   -7.7802 C   0  0  0  0  0  0  0  0  0  0  0  0
   -9.3903   20.3586   -7.2830 C   0  0  0  0  0  0  0  0  0  0  0  0
   -9.4034   20.5797   -5.9156 C   0  0  0  0  0  0  0  0  0  0  0  0
  -10.1527   19.2699   -2.9706 C   0  0  0  0  0  0  0  0  0  0  0  0
   -9.0337   19.7744   -3.7023 O   0  0  0  0  0  0  0  0  0  0  0  0
   -9.7739   21.7928   -5.4249 O   0  0  0  0  0  0  0  0  0  0  0  0
  -11.1559   22.1407   -5.5305 C   0  0  0  0  0  0  0  0  0  0  0  0
 27 28  1  0  0  0
 28 21  1  0  0  0
 21 26  2  0  0  0
 21 22  1  0  0  0
 22 23  2  0  0  0
 23 24  1  0  0  0
 24 20  1  0  0  0
 24 25  2  0  0  0
 20  1  1  0  0  0
  1  5  1  0  0  0
  1  2  1  0  0  0
  2  3  1  0  0  0
  3 17  1  0  0  0
  3  4  1  0  0  0
 17 18  1  0  0  0
  4 15  1  0  0  0
  4  5  1  0  0  0
  4  6  1  0  0  0
  6  7  1  0  0  0
  7 12  2  0  0  0
  7  8  1  0  0  0
  8  9  2  0  0  0
  9 10  1  0  0  0
 10 11  2  0  0  0
 11 12  1  0  0  0
 12 13  1  0  0  0
 13 14  2  0  0  0
 13 15  1  0  0  0
 25 26  1  0  0  0
 26 29  1  0  0  0
 29 30  1  0  0  0
 18 19  1  0  0  0
 15 16  1  0  0  0
M  END
> <minimizedAffinity>
-8.10047

$$$$
ZINC000016248498


 18 18  0  0  0  0  0  0  0  0999 V2000
   -6.3378   15.5379  -12.0013 N   0  0  0  0  0  0  0  0  0  0  0  0
   -5.9350   16.5005  -13.0358 C   0  0  0  0  0  0  0  0  0  0  0  0
   -5.4225   17.7724  -12.3528 C   0  0  0  0  0  0  0  0  0  0  0  0
   -6.4905   18.2952  -11.3896 C   0  0  0  0  0  0  0  0  0  0  0  0
   -6.7651   17.2449  -10.3108 C   0  0  0  0  0  0  0  0  0  0  0  0
   -7.2971   15.9653  -10.9738 C   0  0  0  0  0  0  0  0  0  0  0  0
   -7.0873   12.9741  -11.3714 C   0  0  0  0  0  0  0  0  0  0  0  0
   -5.7276   13.9985  -11.9978 S   0  0  0  0  0  0  0  0  0  0  0  0
   -4.6640   14.0452  -11.0565 O   0  0  0  0  0  0  0  0  0  0  0  0
   -5.4811   13.7161  -13.3685 O   0  0  0  0  0  0  0  0  0  0  0  0
   -7.7927   17.7739   -9.3438 C   0  0  0  0  0  0  0  0  0  0  0  0
   -8.1079   18.9447   -9.3741 O   0  0  0  0  0  0  0  0  0  0  0  0
   -8.3614   16.9461   -8.4451 N   0  0  0  0  0  0  0  0  0  0  0  0
   -5.2478   18.0485  -13.7067 H   0  0  0  0  0  0  0  0  0  0  0  0
   -9.3604   17.4604   -7.5049 C   0  0  0  0  0  0  0  0  0  0  0  0
   -9.6985   16.3782   -6.4775 C   0  0  0  0  0  0  0  0  0  0  0  0
  -10.8842   16.7467   -5.7702 O   0  0  0  0  0  0  0  0  0  0  0  0
   -6.4208   24.3201   -7.3487 H   0  0  0  0  0  0  0  0  0  0  0  0
  7  8  1  0  0  0
  8  9  2  0  0  0
  8 10  2  0  0  0
  8  1  1  0  0  0
  1  6  1  0  0  0
  1  2  1  0  0  0
  2  3  1  0  0  0
  3  4  1  0  0  0
  4  5  1  0  0  0
  5 11  1  0  0  0
  5  6  1  0  0  0
 11 12  2  0  0  0
 11 13  1  0  0  0
 13 15  1  0  0  0
 15 16  1  0  0  0
 16 17  1  0  0  0
 13 14  1  0  0  0
 17 18  1  0  0  0
M  END
> <minimizedAffinity>
-6.00942

$$$$
ZINC000225244967


 23 24  0  0  0  0  0  0  0  0999 V2000
   -9.0094   14.4242   -7.9704 N   0  0  0  0  0  0  0  0  0  0  0  0
   -8.0022   14.8117   -8.7009 C   0  0  0  0  0  0  0  0  0  0  0  0
   -9.1028   13.4645   -7.9440 H   0  0  0  0  0  0  0  0  0  0  0  0
   -9.1028   13.4645   -7.9440 H   0  0  0  0  0  0  0  0  0  0  0  0
   -7.5818   14.0391   -9.7577 N   0  0  0  0  0  0  0  0  0  0  0  0
   -8.4104   13.9060  -10.9637 C   0  0  0  0  0  0  0  0  0  0  0  0
   -7.5641   14.2741  -12.1865 C   0  0  0  0  0  0  0  0  0  0  0  0
   -6.2943   13.4199  -12.1987 C   0  0  0  0  0  0  0  0  0  0  0  0
   -5.5178   13.7379  -13.3556 O   0  0  0  0  0  0  0  0  0  0  0  0
   -5.4731   13.7055  -10.9392 C   0  0  0  0  0  0  0  0  0  0  0  0
   -6.2929   13.3359   -9.7049 C   0  0  0  0  0  0  0  0  0  0  0  0
   -6.3662   15.7574   -8.5319 H   0  0  0  0  0  0  0  0  0  0  0  0
   -7.3588   15.9954   -8.4142 N   0  0  0  0  0  0  0  0  0  0  0  0
   -9.5448   14.0906   -9.5374 H   0  0  0  0  0  0  0  0  0  0  0  0
   -7.7240   17.1649   -9.0770 C   0  0  0  0  0  0  0  0  0  0  0  0
   -7.2522   17.4059  -10.2901 N   0  0  0  0  0  0  0  0  0  0  0  0
   -7.5734   18.5009  -10.9525 C   0  0  0  0  0  0  0  0  0  0  0  0
   -8.4192   19.4409  -10.3987 C   0  0  0  0  0  0  0  0  0  0  0  0
   -8.9359   19.2259   -9.1278 C   0  0  0  0  0  0  0  0  0  0  0  0
   -8.5856   18.0659   -8.4605 C   0  0  0  0  0  0  0  0  0  0  0  0
   -9.1113   17.7929   -7.1040 N   0  0  0  0  0  0  0  0  0  0  0  0
  -10.1023   17.0989   -6.9631 O   0  0  0  0  0  0  0  0  0  0  0  0
   -8.5528   18.2621   -6.1286 O   0  0  0  0  0  0  0  0  0  0  0  0
  1  2  2  0  0  0
  2 13  1  0  0  0
  2  5  1  0  0  0
 13 15  1  0  0  0
 15 20  1  0  0  0
 15 16  2  0  0  0
 16 17  1  0  0  0
 17 18  2  0  0  0
 18 19  1  0  0  0
 19 20  2  0  0  0
 20 21  1  0  0  0
 21 22  1  0  0  0
 21 23  2  0  0  0
  5 11  1  0  0  0
  5  6  1  0  0  0
  6  7  1  0  0  0
  7  8  1  0  0  0
  8  9  1  0  0  0
  8 10  1  0  0  0
 10 11  1  0  0  0
  1  3  1  0  0  0
  1  4  1  0  0  0
 13 14  1  0  0  0
  9 12  1  0  0  0
M  CHG 1   1   1
M  CHG 1  21   1
M  CHG 1  22  -1
M  END
> <minimizedAffinity>
-6.93703

$$$$
ZINC000021712736


 33 35  0  0  0  0  0  0  0  0999 V2000
   -9.4987   18.0402   -5.1888 C   0  0  0  0  0  0  0  0  0  0  0  0
   -9.6086   16.6854   -4.8623 C   0  0  0  0  0  0  0  0  0  0  0  0
   -8.8689   15.7511   -5.5504 C   0  0  0  0  0  0  0  0  0  0  0  0
   -8.0117   16.1539   -6.5708 C   0  0  0  0  0  0  0  0  0  0  0  0
   -7.9001   17.5024   -6.8984 C   0  0  0  0  0  0  0  0  0  0  0  0
   -8.6411   18.4409   -6.2174 C   0  0  0  0  0  0  0  0  0  0  0  0
  -10.3317   20.9338   -2.8024 C   0  0  0  0  0  0  0  0  0  0  0  0
   -9.2855   21.5015   -1.8201 C   0  0  0  0  0  0  0  0  0  0  0  0
   -8.3024   20.3154   -1.6357 C   0  0  0  0  0  0  0  0  0  0  0  0
   -8.3051   19.6862   -3.0512 C   0  0  0  0  0  0  0  0  0  0  0  0
   -9.6997   19.8176   -3.5211 N   0  0  0  0  0  0  0  0  0  0  0  0
  -10.2906   19.0444   -4.4534 C   0  0  0  0  0  0  0  0  0  0  0  0
  -11.4766   19.1744   -4.6884 O   0  0  0  0  0  0  0  0  0  0  0  0
   -9.8651   22.4731   -4.6815 N   0  0  0  0  0  0  0  0  0  0  0  0
  -10.7493   22.0019   -3.7801 C   0  0  0  0  0  0  0  0  0  0  0  0
  -11.8810   22.4373   -3.7557 O   0  0  0  0  0  0  0  0  0  0  0  0
   -8.6744   22.7237   -7.3053 H   0  0  0  0  0  0  0  0  0  0  0  0
  -10.2711   23.5115   -5.6320 C   0  0  0  0  0  0  0  0  0  0  0  0
   -9.1070   24.4779   -5.8595 C   0  0  0  0  0  0  0  0  0  0  0  0
   -9.7582   26.7832   -5.7771 C   0  0  0  0  0  0  0  0  0  0  0  0
   -9.2908   25.6433   -5.0531 O   0  0  0  0  0  0  0  0  0  0  0  0
   -7.2660   15.2073   -7.2645 N   0  0  0  0  0  0  0  0  0  0  0  0
  -16.7074   21.7153   -2.5102 H   0  0  0  0  0  0  0  0  0  0  0  0
   -7.8046   14.6350   -8.7222 S   0  0  0  0  0  0  0  0  0  0  0  0
   -7.3993   13.2749   -8.7938 O   0  0  0  0  0  0  0  0  0  0  0  0
   -9.1586   15.0496   -8.8405 O   0  0  0  0  0  0  0  0  0  0  0  0
   -6.9115   15.4872   -9.9794 C   0  0  0  0  0  0  0  0  0  0  0  0
   -5.8362   14.8767  -10.5974 C   0  0  0  0  0  0  0  0  0  0  0  0
   -5.1351   15.5441  -11.5837 C   0  0  0  0  0  0  0  0  0  0  0  0
   -5.5103   16.8246  -11.9531 C   0  0  0  0  0  0  0  0  0  0  0  0
   -4.8259   17.4779  -12.9176 F   0  0  0  0  0  0  0  0  0  0  0  0
   -6.5878   17.4350  -11.3339 C   0  0  0  0  0  0  0  0  0  0  0  0
   -7.2904   16.7637  -10.3512 C   0  0  0  0  0  0  0  0  0  0  0  0
 20 21  1  0  0  0
 21 19  1  0  0  0
 19 18  1  0  0  0
 18 14  1  0  0  0
 14 15  1  0  0  0
 15 16  2  0  0  0
 15  7  1  0  0  0
  7 11  1  0  0  0
  7  8  1  0  0  0
  8  9  1  0  0  0
  9 10  1  0  0  0
 10 11  1  0  0  0
 11 12  1  0  0  0
 12 13  2  0  0  0
 12  1  1  0  0  0
  1  6  1  0  0  0
  1  2  2  0  0  0
  2  3  1  0  0  0
  3  4  2  0  0  0
  4 22  1  0  0  0
  4  5  1  0  0  0
 22 24  1  0  0  0
 24 25  2  0  0  0
 24 26  2  0  0  0
 24 27  1  0  0  0
 27 33  1  0  0  0
 27 28  2  0  0  0
 28 29  1  0  0  0
 29 30  2  0  0  0
 30 31  1  0  0  0
 30 32  1  0  0  0
 32 33  2  0  0  0
  5  6  2  0  0  0
 14 17  1  0  0  0
 22 23  1  0  0  0
M  END
> <minimizedAffinity>
-7.68956

$$$$
ZINC000006564708


 26 27  0  0  0  0  0  0  0  0999 V2000
   -8.0925   17.3575   -7.7681 N   0  0  0  0  0  0  0  0  0  0  0  0
   -8.9595   16.3542   -8.0095 C   0  0  0  0  0  0  0  0  0  0  0  0
  -10.1445   16.5144   -7.8058 O   0  0  0  0  0  0  0  0  0  0  0  0
  -10.6714   22.4446   -4.6058 H   0  0  0  0  0  0  0  0  0  0  0  0
   -9.4303   20.8870   -5.9960 C   0  0  0  0  0  0  0  0  0  0  0  0
   -9.1779   19.7705   -5.2129 C   0  0  0  0  0  0  0  0  0  0  0  0
   -8.7347   18.6012   -5.7991 C   0  0  0  0  0  0  0  0  0  0  0  0
   -8.5417   18.5435   -7.1727 C   0  0  0  0  0  0  0  0  0  0  0  0
   -8.7946   19.6618   -7.9563 C   0  0  0  0  0  0  0  0  0  0  0  0
   -9.2431   20.8283   -7.3696 C   0  0  0  0  0  0  0  0  0  0  0  0
   -8.5892   19.6011   -9.4208 N   0  0  0  0  0  0  0  0  0  0  0  0
   -7.4724   19.7437   -9.8856 O   0  0  0  0  0  0  0  0  0  0  0  0
   -9.5369   19.4086  -10.1613 O   0  0  0  0  0  0  0  0  0  0  0  0
   -9.8667   22.0379   -5.4183 O   0  0  0  0  0  0  0  0  0  0  0  0
   -8.8660   24.1692   -5.9624 C   0  0  0  0  0  0  0  0  0  0  0  0
   -9.9942   23.1814   -6.2656 C   0  0  0  0  0  0  0  0  0  0  0  0
   -8.4568   15.0334   -8.5327 C   0  0  0  0  0  0  0  0  0  0  0  0
   -6.6547   14.9690   -8.3765 S   0  0  0  0  0  0  0  0  0  0  0  0
   -6.1903   15.3445  -10.0343 C   0  0  0  0  0  0  0  0  0  0  0  0
   -6.0713   16.6050  -10.4047 N   0  0  0  0  0  0  0  0  0  0  0  0
   -5.7224   16.9315  -11.6464 C   0  0  0  0  0  0  0  0  0  0  0  0
   -5.4793   15.9552  -12.5690 C   0  0  0  0  0  0  0  0  0  0  0  0
   -5.6036   14.6090  -12.1832 C   0  0  0  0  0  0  0  0  0  0  0  0
   -5.3938   13.7113  -12.9824 O   0  0  0  0  0  0  0  0  0  0  0  0
   -5.9548   14.3285  -10.9100 N   0  0  0  0  0  0  0  0  0  0  0  0
   -8.1709   16.7836    0.8575 H   0  0  0  0  0  0  0  0  0  0  0  0
 15 16  1  0  0  0
 16 14  1  0  0  0
 14  5  1  0  0  0
  5 10  2  0  0  0
  5  6  1  0  0  0
  6  7  2  0  0  0
  7  8  1  0  0  0
  8  1  1  0  0  0
  8  9  2  0  0  0
  1  2  1  0  0  0
  2  3  2  0  0  0
  2 17  1  0  0  0
 17 18  1  0  0  0
 18 19  1  0  0  0
 19 25  1  0  0  0
 19 20  2  0  0  0
 20 21  1  0  0  0
 21 22  2  0  0  0
 22 23  1  0  0  0
 23 24  2  0  0  0
 23 25  1  0  0  0
  9 11  1  0  0  0
  9 10  1  0  0  0
 11 12  1  0  0  0
 11 13  2  0  0  0
  1  4  1  0  0  0
 25 26  1  0  0  0
M  CHG 1  11   1
M  CHG 1  12  -1
M  END
> <minimizedAffinity>
-7.01577

$$$$
ZINC000076054120


 26 29  0  0  0  0  0  0  0  0999 V2000
   -6.5721   18.0914   -9.3907 C   0  0  0  0  0  0  0  0  0  0  0  0
   -6.5443   16.6065   -9.0226 C   0  0  0  0  0  0  0  0  0  0  0  0
   -6.8480   16.4201   -7.5204 C   0  0  0  0  0  0  0  0  0  0  0  0
   -8.3040   16.1521   -7.4638 N   0  0  0  0  0  0  0  0  0  0  0  0
   -9.1931   16.6040   -6.5574 C   0  0  0  0  0  0  0  0  0  0  0  0
  -10.3621   16.2935   -6.6476 O   0  0  0  0  0  0  0  0  0  0  0  0
   -8.5607   15.2749   -8.6296 C   0  0  0  0  0  0  0  0  0  0  0  0
   -7.6718   15.8509   -9.7562 C   0  0  0  0  0  0  0  0  0  0  0  0
   -7.1170   14.7646  -10.5748 N   0  0  0  0  0  0  0  0  0  0  0  0
   -5.7026   15.0406  -10.8616 C   0  0  0  0  0  0  0  0  0  0  0  0
   -5.1267   13.9073  -11.7143 C   0  0  0  0  0  0  0  0  0  0  0  0
   -5.8925   13.7858  -12.9163 O   0  0  0  0  0  0  0  0  0  0  0  0
   -7.2830   13.5399  -12.6884 C   0  0  0  0  0  0  0  0  0  0  0  0
   -7.8629   14.6725  -11.8374 C   0  0  0  0  0  0  0  0  0  0  0  0
   -6.9520   15.9239   -8.3889 H   0  0  0  0  0  0  0  0  0  0  0  0
   -8.7349   17.4948   -5.4316 C   0  0  0  0  0  0  0  0  0  0  0  0
   -9.1693   18.8700   -5.6892 N   0  0  0  0  0  0  0  0  0  0  0  0
   -8.9580   19.4489   -6.9448 N   0  0  0  0  0  0  0  0  0  0  0  0
   -9.3241   20.6563   -7.2155 C   0  0  0  0  0  0  0  0  0  0  0  0
   -9.9479   21.4521   -6.2805 N   0  0  0  0  0  0  0  0  0  0  0  0
  -10.4348   22.7635   -6.3132 N   0  0  0  0  0  0  0  0  0  0  0  0
  -10.9481   23.0546   -5.1403 C   0  0  0  0  0  0  0  0  0  0  0  0
  -10.8161   21.9511   -4.3038 C   0  0  0  0  0  0  0  0  0  0  0  0
  -10.1912   20.9563   -5.0233 C   0  0  0  0  0  0  0  0  0  0  0  0
   -9.7811   19.5823   -4.7150 C   0  0  0  0  0  0  0  0  0  0  0  0
   -9.9823   19.0986   -3.6154 O   0  0  0  0  0  0  0  0  0  0  0  0
  1  2  1  0  0  0
  2  8  1  0  0  0
  2  3  1  0  0  0
  3  4  1  0  0  0
  4  5  1  0  0  0
  4  7  1  0  0  0
  5  6  2  0  0  0
  5 16  1  0  0  0
 16 17  1  0  0  0
 17 25  1  0  0  0
 17 18  1  0  0  0
 18 19  2  0  0  0
 19 20  1  0  0  0
 20 24  1  0  0  0
 20 21  1  0  0  0
 21 22  2  0  0  0
 22 23  1  0  0  0
 23 24  2  0  0  0
 24 25  1  0  0  0
 25 26  2  0  0  0
  7  8  1  0  0  0
  8  9  1  0  0  0
  9 14  1  0  0  0
  9 10  1  0  0  0
 10 11  1  0  0  0
 11 12  1  0  0  0
 12 13  1  0  0  0
 13 14  1  0  0  0
  9 15  1  0  0  0
M  CHG 1   9   1
M  END
> <minimizedAffinity>
-7.73238

$$$$
ZINC000004280613


 31 31  0  0  0  0  0  0  0  0999 V2000
   -7.2068   14.7670   -8.5377 C   0  0  0  0  0  0  0  0  0  0  0  0
   -5.6860   14.5979   -7.5469 P   0  0  0  0  0  0  0  0  0  0  0  0
   -5.9824   13.7517   -6.2887 O   0  0  0  0  0  0  0  0  0  0  0  0
   -5.1906   15.9980   -7.1209 O   0  0  0  0  0  0  0  0  0  0  0  0
   -6.8784   11.9386  -12.4990 H   0  0  0  0  0  0  0  0  0  0  0  0
   -6.8784   11.9386  -12.4990 H   0  0  0  0  0  0  0  0  0  0  0  0
   -6.8784   11.9386  -12.4990 H   0  0  0  0  0  0  0  0  0  0  0  0
   -6.8784   11.9386  -12.4990 H   0  0  0  0  0  0  0  0  0  0  0  0
   -8.2688   18.3606   -9.0294 C   0  0  0  0  0  0  0  0  0  0  0  0
   -8.1833   17.0704   -8.5285 C   0  0  0  0  0  0  0  0  0  0  0  0
   -7.2964   16.1681   -9.0853 C   0  0  0  0  0  0  0  0  0  0  0  0
   -6.4918   16.5474  -10.1433 C   0  0  0  0  0  0  0  0  0  0  0  0
   -6.5711   17.8357  -10.6501 C   0  0  0  0  0  0  0  0  0  0  0  0
   -7.4653   18.7443  -10.0965 C   0  0  0  0  0  0  0  0  0  0  0  0
   -9.0904   19.4158   -7.0628 C   0  0  0  0  0  0  0  0  0  0  0  0
   -9.1417   19.2475   -8.4810 O   0  0  0  0  0  0  0  0  0  0  0  0
   -5.7791   18.2079  -11.6910 O   0  0  0  0  0  0  0  0  0  0  0  0
   -5.2009   17.1609  -12.4731 C   0  0  0  0  0  0  0  0  0  0  0  0
   -7.5462   20.0096  -10.5910 O   0  0  0  0  0  0  0  0  0  0  0  0
   -8.2806   20.1863  -11.8041 C   0  0  0  0  0  0  0  0  0  0  0  0
   -7.1760   13.8103   -9.6468 N   0  0  0  0  0  0  0  0  0  0  0  0
   -4.0857   18.2507   -7.1512 H   0  0  0  0  0  0  0  0  0  0  0  0
   -8.2724   13.7062  -10.5129 N   0  0  0  0  0  0  0  0  0  0  0  0
   -8.0815   13.6209  -11.7949 C   0  0  0  0  0  0  0  0  0  0  0  0
   -6.7913   13.6329  -12.3068 N   0  0  0  0  0  0  0  0  0  0  0  0
   -9.1677   13.5179  -12.6529 N   0  0  0  0  0  0  0  0  0  0  0  0
   -5.7771   17.0844   -4.8700 H   0  0  0  0  0  0  0  0  0  0  0  0
   -5.7771   17.0844   -4.8700 H   0  0  0  0  0  0  0  0  0  0  0  0
   -5.7771   17.0844   -4.8700 H   0  0  0  0  0  0  0  0  0  0  0  0
   -5.7771   17.0844   -4.8700 H   0  0  0  0  0  0  0  0  0  0  0  0
   -5.7771   17.0844   -4.8700 H   0  0  0  0  0  0  0  0  0  0  0  0
 15 16  1  0  0  0
 16  9  1  0  0  0
  9 14  2  0  0  0
  9 10  1  0  0  0
 10 11  2  0  0  0
 11  1  1  0  0  0
 11 12  1  0  0  0
  1 21  1  0  0  0
  1  2  1  0  0  0
 21 23  1  0  0  0
 23 24  2  0  0  0
 24 25  1  0  0  0
 24 26  1  0  0  0
  2  3  1  0  0  0
  2  4  1  0  0  0
 12 13  2  0  0  0
 13 17  1  0  0  0
 13 14  1  0  0  0
 17 18  1  0  0  0
 14 19  1  0  0  0
 19 20  1  0  0  0
 21 22  1  0  0  0
 23 27  1  0  0  0
 25 28  1  0  0  0
 25 29  1  0  0  0
 26 30  1  0  0  0
 26 31  1  0  0  0
  2  5  1  0  0  0
  2  6  1  0  0  0
  3  7  1  0  0  0
  4  8  1  0  0  0
M  CHG 1  23   1
M  END
> <minimizedAffinity>
-6.14457

$$$$
ZINC000013126678


 32 35  0  0  0  0  0  0  0  0999 V2000
   -8.0603   15.2544   -8.7121 C   0  0  0  0  0  0  0  0  0  0  0  0
   -8.7837   14.3100   -8.9480 O   0  0  0  0  0  0  0  0  0  0  0  0
   -8.2448   15.9812   -7.5921 N   0  0  0  0  0  0  0  0  0  0  0  0
   -7.3136   17.0623   -7.2403 C   0  0  0  0  0  0  0  0  0  0  0  0
   -8.1140   18.3572   -7.0540 C   0  0  0  0  0  0  0  0  0  0  0  0
   -9.2501   18.0830   -6.1629 N   0  0  0  0  0  0  0  0  0  0  0  0
  -10.1813   17.0018   -6.5148 C   0  0  0  0  0  0  0  0  0  0  0  0
   -9.3840   15.7106   -6.7039 C   0  0  0  0  0  0  0  0  0  0  0  0
   -9.4773   18.9767   -4.7874 S   0  0  0  0  0  0  0  0  0  0  0  0
  -10.7727   18.6478   -4.3047 O   0  0  0  0  0  0  0  0  0  0  0  0
   -8.2970   18.8250   -4.0109 O   0  0  0  0  0  0  0  0  0  0  0  0
   -9.5412   20.6700   -5.2702 C   0  0  0  0  0  0  0  0  0  0  0  0
   -9.3827   21.0173   -6.5955 C   0  0  0  0  0  0  0  0  0  0  0  0
   -9.4326   22.3468   -6.9764 C   0  0  0  0  0  0  0  0  0  0  0  0
   -9.6408   23.3362   -6.0322 C   0  0  0  0  0  0  0  0  0  0  0  0
   -9.8009   23.0029   -4.7029 C   0  0  0  0  0  0  0  0  0  0  0  0
   -9.7580   21.6631   -4.3125 C   0  0  0  0  0  0  0  0  0  0  0  0
   -9.9233   21.3097   -2.9347 C   0  0  0  0  0  0  0  0  0  0  0  0
  -10.0545   21.0294   -1.8417 N   0  0  0  0  0  0  0  0  0  0  0  0
   -6.9554   15.6153   -9.6711 C   0  0  0  0  0  0  0  0  0  0  0  0
   -7.1595   15.8371  -12.0564 C   0  0  0  0  0  0  0  0  0  0  0  0
   -6.3353   16.8751  -12.8469 C   0  0  0  0  0  0  0  0  0  0  0  0
   -6.7339   18.2184  -12.1810 C   0  0  0  0  0  0  0  0  0  0  0  0
   -6.8986   17.7965  -10.6996 C   0  0  0  0  0  0  0  0  0  0  0  0
   -7.4994   16.4431  -10.7559 N   0  0  0  0  0  0  0  0  0  0  0  0
   -6.1011   13.6219  -12.8103 H   0  0  0  0  0  0  0  0  0  0  0  0
   -8.2037   12.9184  -12.1221 C   0  0  0  0  0  0  0  0  0  0  0  0
   -6.8143   13.3101  -11.8717 N   0  0  0  0  0  0  0  0  0  0  0  0
   -5.7784   12.4559  -11.6351 C   0  0  0  0  0  0  0  0  0  0  0  0
   -4.6612   13.1886  -11.4519 C   0  0  0  0  0  0  0  0  0  0  0  0
   -5.0206   14.5448  -11.5800 C   0  0  0  0  0  0  0  0  0  0  0  0
   -6.3425   14.5890  -11.8426 C   0  0  0  0  0  0  0  0  0  0  0  0
 27 28  1  0  0  0
 28 32  1  0  0  0
 28 29  1  0  0  0
 29 30  2  0  0  0
 30 31  1  0  0  0
 31 32  2  0  0  0
 32 21  1  0  0  0
 21 25  1  0  0  0
 21 22  1  0  0  0
 22 23  1  0  0  0
 23 24  1  0  0  0
 24 25  1  0  0  0
 25 20  1  0  0  0
 20  1  1  0  0  0
  1  2  2  0  0  0
  1  3  1  0  0  0
  3  8  1  0  0  0
  3  4  1  0  0  0
  4  5  1  0  0  0
  5  6  1  0  0  0
  6  9  1  0  0  0
  6  7  1  0  0  0
  9 10  2  0  0  0
  9 11  2  0  0  0
  9 12  1  0  0  0
 12 17  1  0  0  0
 12 13  2  0  0  0
 13 14  1  0  0  0
 14 15  2  0  0  0
 15 16  1  0  0  0
 16 17  2  0  0  0
 17 18  1  0  0  0
 18 19  3  0  0  0
  7  8  1  0  0  0
 25 26  1  0  0  0
M  CHG 1  25   1
M  END
> <minimizedAffinity>
-7.93053

$$$$
ZINC000585093960


 26 29  0  0  0  0  0  0  0  0999 V2000
   -9.6816   17.5449   -6.5755 N   0  0  0  0  0  0  0  0  0  0  0  0
   -9.5792   16.8662   -7.8827 C   0  0  0  0  0  0  0  0  0  0  0  0
   -8.5556   17.9256   -8.2837 C   0  0  0  0  0  0  0  0  0  0  0  0
   -8.3060   18.0394   -6.7820 C   0  0  0  0  0  0  0  0  0  0  0  0
   -7.3686   17.4145   -9.1128 C   0  0  0  0  0  0  0  0  0  0  0  0
   -7.6356   18.0345  -10.5118 C   0  0  0  0  0  0  0  0  0  0  0  0
   -8.2649   19.4005  -10.1373 C   0  0  0  0  0  0  0  0  0  0  0  0
   -9.0911   19.1220   -8.9401 N   0  0  0  0  0  0  0  0  0  0  0  0
   -9.0928   20.2695   -8.0230 C   0  0  0  0  0  0  0  0  0  0  0  0
   -9.7312   16.5693   -5.4784 C   0  0  0  0  0  0  0  0  0  0  0  0
  -12.0878   18.0756   -1.2258 C   0  0  0  0  0  0  0  0  0  0  0  0
  -11.7489   17.6509   -2.6315 C   0  0  0  0  0  0  0  0  0  0  0  0
  -10.5233   17.3238   -3.1065 C   0  0  0  0  0  0  0  0  0  0  0  0
  -10.7567   17.0057   -4.4641 C   0  0  0  0  0  0  0  0  0  0  0  0
  -12.0333   17.1639   -4.6643 N   0  0  0  0  0  0  0  0  0  0  0  0
  -12.6015   17.5167   -3.6569 O   0  0  0  0  0  0  0  0  0  0  0  0
   -6.3289   18.2261  -11.2842 C   0  0  0  0  0  0  0  0  0  0  0  0
   -6.3296   17.3829  -12.4379 O   0  0  0  0  0  0  0  0  0  0  0  0
   -6.3391   16.0448  -12.2221 C   0  0  0  0  0  0  0  0  0  0  0  0
   -5.2086   15.4271  -11.6972 C   0  0  0  0  0  0  0  0  0  0  0  0
   -5.2240   14.0644  -11.4790 C   0  0  0  0  0  0  0  0  0  0  0  0
   -6.3893   13.3519  -11.7981 C   0  0  0  0  0  0  0  0  0  0  0  0
   -7.4832   14.0434  -12.3214 C   0  0  0  0  0  0  0  0  0  0  0  0
   -7.4262   15.3454  -12.5086 N   0  0  0  0  0  0  0  0  0  0  0  0
   -6.4559   11.9367  -11.5899 C   0  0  0  0  0  0  0  0  0  0  0  0
   -6.5087   10.8140  -11.4247 N   0  0  0  0  0  0  0  0  0  0  0  0
 11 12  1  0  0  0
 12 16  1  0  0  0
 12 13  2  0  0  0
 13 14  1  0  0  0
 14 10  1  0  0  0
 14 15  2  0  0  0
 10  1  1  0  0  0
  1  4  1  0  0  0
  1  2  1  0  0  0
  2  3  1  0  0  0
  3  8  1  0  0  0
  3  4  1  0  0  0
  3  5  1  0  0  0
  5  6  1  0  0  0
  6 17  1  0  0  0
  6  7  1  0  0  0
 17 18  1  0  0  0
 18 19  1  0  0  0
 19 24  1  0  0  0
 19 20  2  0  0  0
 20 21  1  0  0  0
 21 22  2  0  0  0
 22 25  1  0  0  0
 22 23  1  0  0  0
 25 26  3  0  0  0
 23 24  2  0  0  0
  7  8  1  0  0  0
  8  9  1  0  0  0
 15 16  1  0  0  0
M  END
> <minimizedAffinity>
-7.97716

$$$$
ZINC000248319357


 32 35  0  0  0  0  0  0  0  0999 V2000
   -7.2427   19.2122  -10.9583 C   0  0  0  0  0  0  0  0  0  0  0  0
   -8.4623   20.1106  -10.7360 C   0  0  0  0  0  0  0  0  0  0  0  0
   -8.5793   20.4474   -9.2476 C   0  0  0  0  0  0  0  0  0  0  0  0
   -8.7105   19.2053   -8.4742 N   0  0  0  0  0  0  0  0  0  0  0  0
   -9.0322   19.4687   -7.1451 C   0  0  0  0  0  0  0  0  0  0  0  0
   -9.8581   20.5632   -6.8827 C   0  0  0  0  0  0  0  0  0  0  0  0
  -10.2171   20.8728   -5.5884 C   0  0  0  0  0  0  0  0  0  0  0  0
   -9.7592   20.0960   -4.5402 C   0  0  0  0  0  0  0  0  0  0  0  0
   -8.9404   19.0131   -4.7931 C   0  0  0  0  0  0  0  0  0  0  0  0
   -8.5724   18.6979   -6.0912 C   0  0  0  0  0  0  0  0  0  0  0  0
   -7.6652   17.5127   -6.3058 C   0  0  0  0  0  0  0  0  0  0  0  0
   -7.7069   17.0927   -7.7775 C   0  0  0  0  0  0  0  0  0  0  0  0
   -6.5822   16.1373   -8.0593 C   0  0  0  0  0  0  0  0  0  0  0  0
   -5.4409   16.4983   -7.8671 O   0  0  0  0  0  0  0  0  0  0  0  0
   -6.8043   14.8970   -8.5166 N   0  0  0  0  0  0  0  0  0  0  0  0
   -8.0432   14.4377   -8.7488 C   0  0  0  0  0  0  0  0  0  0  0  0
   -8.1870   13.3039   -9.1608 O   0  0  0  0  0  0  0  0  0  0  0  0
   -9.1274   15.1992   -8.5379 N   0  0  0  0  0  0  0  0  0  0  0  0
   -9.0330   16.4565   -8.0822 C   0  0  0  0  0  0  0  0  0  0  0  0
  -10.0470   17.0989   -7.9123 O   0  0  0  0  0  0  0  0  0  0  0  0
   -7.5337   18.3520   -8.6340 C   0  0  0  0  0  0  0  0  0  0  0  0
   -7.3830   17.9494  -10.1033 C   0  0  0  0  0  0  0  0  0  0  0  0
   -6.9587   19.3381  -14.7377 H   0  0  0  0  0  0  0  0  0  0  0  0
   -6.9587   19.3381  -14.7377 H   0  0  0  0  0  0  0  0  0  0  0  0
  -10.1461   20.4242   -3.1499 N   0  0  0  0  0  0  0  0  0  0  0  0
  -10.9626   19.7344   -2.5660 O   0  0  0  0  0  0  0  0  0  0  0  0
   -9.6481   21.3842   -2.5896 O   0  0  0  0  0  0  0  0  0  0  0  0
   -7.1587   18.8282  -12.4132 C   0  0  0  0  0  0  0  0  0  0  0  0
   -7.4643   19.6264  -13.2673 O   0  0  0  0  0  0  0  0  0  0  0  0
   -6.7444   17.5995  -12.7602 O   0  0  0  0  0  0  0  0  0  0  0  0
   -4.9556   16.1349  -11.9948 C   0  0  0  0  0  0  0  0  0  0  0  0
   -5.3103   17.3780  -12.8133 C   0  0  0  0  0  0  0  0  0  0  0  0
 31 32  1  0  0  0
 32 30  1  0  0  0
 30 28  1  0  0  0
 28 29  2  0  0  0
 28  1  1  0  0  0
  1 22  1  0  0  0
  1  2  1  0  0  0
  2  3  1  0  0  0
  3  4  1  0  0  0
  4 21  1  0  0  0
  4  5  1  0  0  0
  5 10  2  0  0  0
  5  6  1  0  0  0
  6  7  2  0  0  0
  7  8  1  0  0  0
  8 25  1  0  0  0
  8  9  2  0  0  0
 25 26  1  0  0  0
 25 27  2  0  0  0
  9 10  1  0  0  0
 10 11  1  0  0  0
 12 11  1  0  0  0
 12 19  1  0  0  0
 12 13  1  0  0  0
 12 21  1  0  0  0
 13 14  2  0  0  0
 13 15  1  0  0  0
 15 16  1  0  0  0
 16 17  2  0  0  0
 16 18  1  0  0  0
 18 19  1  0  0  0
 19 20  2  0  0  0
 21 22  1  0  0  0
 15 23  1  0  0  0
 18 24  1  0  0  0
M  CHG 1  25   1
M  CHG 1  26  -1
M  END
> <minimizedAffinity>
-9.21631

$$$$
ZINC000020463975


 27 28  0  0  0  0  0  0  0  0999 V2000
   -8.0052   13.9963  -10.2722 C   0  0  0  0  0  0  0  0  0  0  0  0
   -6.8578   12.9744  -10.2183 C   0  0  0  0  0  0  0  0  0  0  0  0
   -7.0350   12.0043  -11.4099 C   0  0  0  0  0  0  0  0  0  0  0  0
   -6.2965   12.6041  -12.4894 O   0  0  0  0  0  0  0  0  0  0  0  0
   -5.7624   13.8454  -11.9935 C   0  0  0  0  0  0  0  0  0  0  0  0
   -5.6371   13.6843  -10.5450 O   0  0  0  0  0  0  0  0  0  0  0  0
   -6.7914   14.9537  -12.2648 C   0  0  0  0  0  0  0  0  0  0  0  0
   -8.1527   14.4939  -11.7146 C   0  0  0  0  0  0  0  0  0  0  0  0
   -8.6411   13.4041  -12.4993 O   0  0  0  0  0  0  0  0  0  0  0  0
   -9.1298   19.3959   -6.4574 H   0  0  0  0  0  0  0  0  0  0  0  0
   -8.0328   16.2726   -7.3849 N   0  0  0  0  0  0  0  0  0  0  0  0
   -8.3137   15.2334   -8.1958 C   0  0  0  0  0  0  0  0  0  0  0  0
   -9.1211   14.3929   -7.8493 O   0  0  0  0  0  0  0  0  0  0  0  0
   -7.6998   15.1260   -9.3907 N   0  0  0  0  0  0  0  0  0  0  0  0
   -8.8598   19.8825   -7.1746 H   0  0  0  0  0  0  0  0  0  0  0  0
   -8.8598   19.8825   -7.1746 H   0  0  0  0  0  0  0  0  0  0  0  0
   -8.7001   16.3895   -6.0859 C   0  0  0  0  0  0  0  0  0  0  0  0
   -8.6498   18.7694   -6.6287 C   0  0  0  0  0  0  0  0  0  0  0  0
   -8.8335   17.8451   -5.7189 C   0  0  0  0  0  0  0  0  0  0  0  0
   -6.3897   16.1807  -11.5641 N   0  0  0  0  0  0  0  0  0  0  0  0
   -4.9914   16.5214  -11.8585 C   0  0  0  0  0  0  0  0  0  0  0  0
   -7.2851   17.2959  -11.8999 C   0  0  0  0  0  0  0  0  0  0  0  0
   -7.2258   18.3490  -10.7915 C   0  0  0  0  0  0  0  0  0  0  0  0
   -8.2411   19.3808  -11.0418 N   0  0  0  0  0  0  0  0  0  0  0  0
   -8.1500   20.4187  -10.0062 C   0  0  0  0  0  0  0  0  0  0  0  0
   -8.0111   19.9842  -12.3613 C   0  0  0  0  0  0  0  0  0  0  0  0
   -9.0437   18.7584   -6.0503 H   0  0  0  0  0  0  0  0  0  0  0  0
 18 19  2  0  0  0
 19 17  1  0  0  0
 17 11  1  0  0  0
 11 12  1  0  0  0
 12 13  2  0  0  0
 12 14  1  0  0  0
 14  1  1  0  0  0
  1  8  1  0  0  0
  1  2  1  0  0  0
  2  6  1  0  0  0
  2  3  1  0  0  0
  3  4  1  0  0  0
  4  5  1  0  0  0
  5  6  1  0  0  0
  5  7  1  0  0  0
  7 20  1  0  0  0
  7  8  1  0  0  0
 20 21  1  0  0  0
 20 22  1  0  0  0
 22 23  1  0  0  0
 23 24  1  0  0  0
 24 25  1  0  0  0
 24 26  1  0  0  0
  8  9  1  0  0  0
 11 15  1  0  0  0
 14 16  1  0  0  0
 24 27  1  0  0  0
  9 10  1  0  0  0
M  CHG 1  24   1
M  END
> <minimizedAffinity>
-6.36763

$$$$
ZINC000004140115


 33 35  0  0  0  0  0  0  0  0999 V2000
   -8.1570   16.1093  -10.3332 C   0  0  0  0  0  0  0  0  0  0  0  0
   -7.4829   17.2055  -11.0345 N   0  0  0  0  0  0  0  0  0  0  0  0
   -6.1527   17.2433  -11.1731 C   0  0  0  0  0  0  0  0  0  0  0  0
   -5.6687   18.2142  -11.7220 O   0  0  0  0  0  0  0  0  0  0  0  0
   -5.3180   16.2874  -10.7494 N   0  0  0  0  0  0  0  0  0  0  0  0
   -5.7971   15.1081  -10.0228 C   0  0  0  0  0  0  0  0  0  0  0  0
   -5.0314   13.9630  -10.4029 O   0  0  0  0  0  0  0  0  0  0  0  0
   -7.2544   14.8925  -10.3835 C   0  0  0  0  0  0  0  0  0  0  0  0
   -7.7177   13.6928  -10.7273 C   0  0  0  0  0  0  0  0  0  0  0  0
   -8.9824   13.5648  -11.2067 O   0  0  0  0  0  0  0  0  0  0  0  0
  -11.7473   17.6453   -5.9590 H   0  0  0  0  0  0  0  0  0  0  0  0
  -11.7473   17.6453   -5.9590 H   0  0  0  0  0  0  0  0  0  0  0  0
  -11.7473   17.6453   -5.9590 H   0  0  0  0  0  0  0  0  0  0  0  0
  -11.7473   17.6453   -5.9590 H   0  0  0  0  0  0  0  0  0  0  0  0
   -8.8638   17.2155   -6.2658 C   0  0  0  0  0  0  0  0  0  0  0  0
   -9.2563   15.9646   -6.7254 C   0  0  0  0  0  0  0  0  0  0  0  0
   -9.0265   15.6105   -8.0403 C   0  0  0  0  0  0  0  0  0  0  0  0
   -8.4061   16.4993   -8.8991 C   0  0  0  0  0  0  0  0  0  0  0  0
   -8.0142   17.7452   -8.4449 C   0  0  0  0  0  0  0  0  0  0  0  0
   -8.2462   18.1079   -7.1326 C   0  0  0  0  0  0  0  0  0  0  0  0
   -9.7585   16.6394   -4.0273 C   0  0  0  0  0  0  0  0  0  0  0  0
   -9.0951   17.5770   -4.9367 N   0  0  0  0  0  0  0  0  0  0  0  0
   -8.6743   18.8940   -4.4519 C   0  0  0  0  0  0  0  0  0  0  0  0
   -6.8546   12.4981  -10.5872 C   0  0  0  0  0  0  0  0  0  0  0  0
   -6.4885   12.0300   -9.3211 C   0  0  0  0  0  0  0  0  0  0  0  0
   -5.6800   10.9091   -9.2443 C   0  0  0  0  0  0  0  0  0  0  0  0
   -5.2640   10.2936  -10.4108 C   0  0  0  0  0  0  0  0  0  0  0  0
   -5.6250   10.7581  -11.5916 N   0  0  0  0  0  0  0  0  0  0  0  0
   -6.3978   11.8173  -11.7155 C   0  0  0  0  0  0  0  0  0  0  0  0
   -5.6660   15.3406   -8.5163 C   0  0  0  0  0  0  0  0  0  0  0  0
   -6.7542   14.7578   -7.8581 F   0  0  0  0  0  0  0  0  0  0  0  0
   -4.4783   14.7616   -8.0566 F   0  0  0  0  0  0  0  0  0  0  0  0
   -5.6457   16.7152   -8.2566 F   0  0  0  0  0  0  0  0  0  0  0  0
 21 22  1  0  0  0
 22 23  1  0  0  0
 22 15  1  0  0  0
 15 20  2  0  0  0
 15 16  1  0  0  0
 16 17  2  0  0  0
 17 18  1  0  0  0
 18  1  1  0  0  0
 18 19  2  0  0  0
  1  8  1  0  0  0
  1  2  1  0  0  0
  2  3  1  0  0  0
  3  4  2  0  0  0
  3  5  1  0  0  0
  5  6  1  0  0  0
  6  7  1  0  0  0
  6 30  1  0  0  0
  6  8  1  0  0  0
 30 31  1  0  0  0
 30 32  1  0  0  0
 30 33  1  0  0  0
  8  9  2  0  0  0
  9 10  1  0  0  0
  9 24  1  0  0  0
 24 29  1  0  0  0
 24 25  2  0  0  0
 25 26  1  0  0  0
 26 27  2  0  0  0
 27 28  1  0  0  0
 28 29  2  0  0  0
 19 20  1  0  0  0
  2 11  1  0  0  0
  5 12  1  0  0  0
  7 13  1  0  0  0
 10 14  1  0  0  0
M  END
> <minimizedAffinity>
-7.24104

$$$$
ZINC000072475247


 27 30  0  0  0  0  0  0  0  0999 V2000
   -8.8469   16.1673   -5.8339 C   0  0  0  0  0  0  0  0  0  0  0  0
   -8.9829   15.1764   -4.6741 C   0  0  0  0  0  0  0  0  0  0  0  0
   -9.5014   15.9192   -3.4393 C   0  0  0  0  0  0  0  0  0  0  0  0
  -10.8294   16.5988   -3.7801 C   0  0  0  0  0  0  0  0  0  0  0  0
  -10.6277   17.5525   -4.8775 N   0  0  0  0  0  0  0  0  0  0  0  0
  -10.1986   16.8387   -6.0861 C   0  0  0  0  0  0  0  0  0  0  0  0
   -7.2808   15.6673   -7.7929 H   0  0  0  0  0  0  0  0  0  0  0  0
   -6.2075   16.6027   -7.4581 C   0  0  0  0  0  0  0  0  0  0  0  0
   -7.2638   15.6358   -7.7674 N   0  0  0  0  0  0  0  0  0  0  0  0
   -7.2897   14.7597   -8.8005 C   0  0  0  0  0  0  0  0  0  0  0  0
   -8.4040   14.0859   -8.7104 N   0  0  0  0  0  0  0  0  0  0  0  0
   -9.0714   14.4879   -7.6874 N   0  0  0  0  0  0  0  0  0  0  0  0
   -8.4105   15.4323   -7.0750 C   0  0  0  0  0  0  0  0  0  0  0  0
   -6.2283   14.5932   -9.8573 C   0  0  0  0  0  0  0  0  0  0  0  0
   -6.0625   15.8567  -10.5880 N   0  0  0  0  0  0  0  0  0  0  0  0
   -7.3623   16.3972  -11.0063 C   0  0  0  0  0  0  0  0  0  0  0  0
   -7.1635   17.7790  -11.6335 C   0  0  0  0  0  0  0  0  0  0  0  0
   -6.2285   17.6570  -12.8398 C   0  0  0  0  0  0  0  0  0  0  0  0
   -4.8995   17.0467  -12.3858 C   0  0  0  0  0  0  0  0  0  0  0  0
   -5.1638   15.6862  -11.7369 C   0  0  0  0  0  0  0  0  0  0  0  0
   -9.5954   18.5253   -4.4955 C   0  0  0  0  0  0  0  0  0  0  0  0
   -9.9221   19.8673   -5.0981 C   0  0  0  0  0  0  0  0  0  0  0  0
   -9.1542   20.3538   -6.1388 C   0  0  0  0  0  0  0  0  0  0  0  0
   -9.4635   21.5896   -6.6866 C   0  0  0  0  0  0  0  0  0  0  0  0
  -10.5384   22.2923   -6.1645 C   0  0  0  0  0  0  0  0  0  0  0  0
  -11.2610   21.7418   -5.1227 C   0  0  0  0  0  0  0  0  0  0  0  0
  -10.9411   20.5614   -4.6297 N   0  0  0  0  0  0  0  0  0  0  0  0
  8  9  1  0  0  0
  9 13  1  0  0  0
  9 10  1  0  0  0
 10 14  1  0  0  0
 10 11  2  0  0  0
 14 15  1  0  0  0
 15 20  1  0  0  0
 15 16  1  0  0  0
 16 17  1  0  0  0
 17 18  1  0  0  0
 18 19  1  0  0  0
 19 20  1  0  0  0
 11 12  1  0  0  0
 12 13  2  0  0  0
 13  1  1  0  0  0
  1  6  1  0  0  0
  1  2  1  0  0  0
  2  3  1  0  0  0
  3  4  1  0  0  0
  4  5  1  0  0  0
  5 21  1  0  0  0
  5  6  1  0  0  0
 21 22  1  0  0  0
 22 27  1  0  0  0
 22 23  2  0  0  0
 23 24  1  0  0  0
 24 25  2  0  0  0
 25 26  1  0  0  0
 26 27  2  0  0  0
  5  7  1  0  0  0
M  CHG 1   5   1
M  END
> <minimizedAffinity>
-7.87113

$$$$
ZINC000003179610


 23 25  0  0  0  0  0  0  0  0999 V2000
   -9.4688   18.8002   -7.9326 C   0  0  0  0  0  0  0  0  0  0  0  0
   -8.6777   18.4029   -6.7555 N   0  0  0  0  0  0  0  0  0  0  0  0
   -8.6140   19.5290   -5.9262 N   0  0  0  0  0  0  0  0  0  0  0  0
   -9.2493   20.5312   -6.4382 C   0  0  0  0  0  0  0  0  0  0  0  0
   -9.8198   20.2063   -7.6712 N   0  0  0  0  0  0  0  0  0  0  0  0
   -6.3587   18.3776  -12.6559 H   0  0  0  0  0  0  0  0  0  0  0  0
   -6.3587   18.3776  -12.6559 H   0  0  0  0  0  0  0  0  0  0  0  0
   -9.3602   21.8587   -5.7973 C   0  0  0  0  0  0  0  0  0  0  0  0
   -9.0372   23.0121   -6.5141 C   0  0  0  0  0  0  0  0  0  0  0  0
   -9.1432   24.2479   -5.9109 C   0  0  0  0  0  0  0  0  0  0  0  0
   -9.5685   24.3458   -4.5966 C   0  0  0  0  0  0  0  0  0  0  0  0
   -9.6988   25.9047   -3.8440 Cl  0  0  0  0  0  0  0  0  0  0  0  0
   -9.8907   23.2051   -3.8805 C   0  0  0  0  0  0  0  0  0  0  0  0
   -9.7938   21.9642   -4.4747 C   0  0  0  0  0  0  0  0  0  0  0  0
   -7.1251   18.4771  -11.4921 C   0  0  0  0  0  0  0  0  0  0  0  0
   -8.0042   19.5406  -11.3316 C   0  0  0  0  0  0  0  0  0  0  0  0
   -8.7602   19.6419  -10.1803 C   0  0  0  0  0  0  0  0  0  0  0  0
   -8.6422   18.6864   -9.1876 C   0  0  0  0  0  0  0  0  0  0  0  0
   -7.7680   17.6264   -9.3441 C   0  0  0  0  0  0  0  0  0  0  0  0
   -7.0133   17.5160  -10.4954 C   0  0  0  0  0  0  0  0  0  0  0  0
   -6.8143   19.0110  -13.8925 C   0  0  0  0  0  0  0  0  0  0  0  0
   -6.3593   18.3714  -12.6554 N   0  0  0  0  0  0  0  0  0  0  0  0
   -5.1013   17.6210  -12.6387 C   0  0  0  0  0  0  0  0  0  0  0  0
 21 22  1  0  0  0
 22 23  1  0  0  0
 22 15  1  0  0  0
 15 20  2  0  0  0
 15 16  1  0  0  0
 16 17  2  0  0  0
 17 18  1  0  0  0
 18  1  1  0  0  0
 18 19  2  0  0  0
  1  5  1  0  0  0
  1  2  1  0  0  0
  2  3  1  0  0  0
  3  4  2  0  0  0
  4  8  1  0  0  0
  4  5  1  0  0  0
  8 14  1  0  0  0
  8  9  2  0  0  0
  9 10  1  0  0  0
 10 11  2  0  0  0
 11 12  1  0  0  0
 11 13  1  0  0  0
 13 14  2  0  0  0
 19 20  1  0  0  0
  2  6  1  0  0  0
  5  7  1  0  0  0
M  END
> <minimizedAffinity>
-7.33307

$$$$
ZINC000096189577


 28 31  0  0  0  0  0  0  0  0999 V2000
   -9.1104   19.0730   -5.5833 C   0  0  0  0  0  0  0  0  0  0  0  0
   -8.9318   17.8933   -6.3208 C   0  0  0  0  0  0  0  0  0  0  0  0
   -8.9340   17.9849   -7.6994 C   0  0  0  0  0  0  0  0  0  0  0  0
   -9.1065   19.2044   -8.3116 C   0  0  0  0  0  0  0  0  0  0  0  0
   -9.1005   19.2876   -9.8262 C   0  0  0  0  0  0  0  0  0  0  0  0
   -7.6798   18.9946  -10.3164 C   0  0  0  0  0  0  0  0  0  0  0  0
   -7.4595   17.5668  -10.4606 N   0  0  0  0  0  0  0  0  0  0  0  0
   -7.3792   16.8171   -9.2196 C   0  0  0  0  0  0  0  0  0  0  0  0
   -8.7489   16.7368   -8.5377 C   0  0  0  0  0  0  0  0  0  0  0  0
   -9.2758   20.3063   -7.6029 N   0  0  0  0  0  0  0  0  0  0  0  0
   -9.2895   20.2832   -6.2789 C   0  0  0  0  0  0  0  0  0  0  0  0
   -9.0143   17.9834   -3.5244 H   0  0  0  0  0  0  0  0  0  0  0  0
   -8.0593   19.0461   -3.4970 O   0  0  0  0  0  0  0  0  0  0  0  0
   -9.1164   19.0448   -4.1132 C   0  0  0  0  0  0  0  0  0  0  0  0
  -10.1785   19.0253   -3.5060 O   0  0  0  0  0  0  0  0  0  0  0  0
   -8.0667   19.1118   -3.4989 H   0  0  0  0  0  0  0  0  0  0  0  0
   -9.4696   21.4578   -5.5748 N   0  0  0  0  0  0  0  0  0  0  0  0
   -6.9950   18.6161   -4.0635 H   0  0  0  0  0  0  0  0  0  0  0  0
  -10.4547   22.4415   -6.0310 C   0  0  0  0  0  0  0  0  0  0  0  0
   -9.7365   23.5915   -6.7399 C   0  0  0  0  0  0  0  0  0  0  0  0
   -9.7442   24.9591   -6.0539 C   0  0  0  0  0  0  0  0  0  0  0  0
   -8.4584   24.1309   -6.0947 C   0  0  0  0  0  0  0  0  0  0  0  0
   -6.2045   17.3666  -11.1972 C   0  0  0  0  0  0  0  0  0  0  0  0
   -6.1361   15.9463  -11.6965 C   0  0  0  0  0  0  0  0  0  0  0  0
   -5.0782   15.1231  -11.5840 C   0  0  0  0  0  0  0  0  0  0  0  0
   -5.4475   13.8973  -12.1841 C   0  0  0  0  0  0  0  0  0  0  0  0
   -6.7089   14.0448  -12.6273 C   0  0  0  0  0  0  0  0  0  0  0  0
   -7.1228   15.2860  -12.3240 O   0  0  0  0  0  0  0  0  0  0  0  0
 13 14  2  0  0  0
 14 15  1  0  0  0
 14  1  1  0  0  0
  1 11  2  0  0  0
  1  2  1  0  0  0
  2  3  2  0  0  0
  3  9  1  0  0  0
  3  4  1  0  0  0
  4  5  1  0  0  0
  4 10  2  0  0  0
  5  6  1  0  0  0
  6  7  1  0  0  0
  7 23  1  0  0  0
  7  8  1  0  0  0
 23 24  1  0  0  0
 24 28  1  0  0  0
 24 25  2  0  0  0
 25 26  1  0  0  0
 26 27  2  0  0  0
 27 28  1  0  0  0
  8  9  1  0  0  0
 10 11  1  0  0  0
 11 17  1  0  0  0
 17 19  1  0  0  0
 19 20  1  0  0  0
 20 22  1  0  0  0
 20 21  1  0  0  0
 21 22  1  0  0  0
 15 16  1  0  0  0
  7 12  1  0  0  0
 17 18  1  0  0  0
M  CHG 1   7   1
M  END
> <minimizedAffinity>
-7.69784

$$$$
ZINC000016711828


 26 27  0  0  0  0  0  0  0  0999 V2000
   -6.9142   13.5616   -9.9815 C   0  0  0  0  0  0  0  0  0  0  0  0
   -6.6688   12.9811  -11.1682 C   0  0  0  0  0  0  0  0  0  0  0  0
   -5.4663   12.0853  -11.3184 C   0  0  0  0  0  0  0  0  0  0  0  0
   -7.4911   13.1877  -12.2433 N   0  0  0  0  0  0  0  0  0  0  0  0
   -8.7088   13.7372  -12.0886 C   0  0  0  0  0  0  0  0  0  0  0  0
   -9.3842   13.9932  -13.0625 O   0  0  0  0  0  0  0  0  0  0  0  0
   -9.2371   14.0355  -10.7087 C   0  0  0  0  0  0  0  0  0  0  0  0
   -8.0884   14.4906   -9.8116 C   0  0  0  0  0  0  0  0  0  0  0  0
   -5.8908   14.4636   -7.9667 H   0  0  0  0  0  0  0  0  0  0  0  0
   -7.6725   15.8867  -10.1974 C   0  0  0  0  0  0  0  0  0  0  0  0
   -7.1829   16.1367  -11.4645 C   0  0  0  0  0  0  0  0  0  0  0  0
   -6.8006   17.4177  -11.8189 C   0  0  0  0  0  0  0  0  0  0  0  0
   -6.9082   18.4510  -10.9069 C   0  0  0  0  0  0  0  0  0  0  0  0
   -7.3974   18.2059   -9.6382 C   0  0  0  0  0  0  0  0  0  0  0  0
   -7.7865   16.9230   -9.2819 C   0  0  0  0  0  0  0  0  0  0  0  0
   -6.2757   17.6828  -13.1771 N   0  0  0  0  0  0  0  0  0  0  0  0
   -6.7148   18.6135  -13.8288 O   0  0  0  0  0  0  0  0  0  0  0  0
   -5.4048   16.9702  -13.6433 O   0  0  0  0  0  0  0  0  0  0  0  0
   -8.2679   16.6796   -8.0345 O   0  0  0  0  0  0  0  0  0  0  0  0
   -9.0078   17.7295   -7.4083 C   0  0  0  0  0  0  0  0  0  0  0  0
  -10.1019   17.1865   -6.7262 F   0  0  0  0  0  0  0  0  0  0  0  0
   -8.1827   18.4057   -6.5031 F   0  0  0  0  0  0  0  0  0  0  0  0
   -6.0662   13.2939   -8.8806 C   0  0  0  0  0  0  0  0  0  0  0  0
   -6.2889   12.3399   -8.1590 O   0  0  0  0  0  0  0  0  0  0  0  0
   -5.0940   14.9388   -7.4795 C   0  0  0  0  0  0  0  0  0  0  0  0
   -5.0107   14.0967   -8.6312 O   0  0  0  0  0  0  0  0  0  0  0  0
 25 26  1  0  0  0
 26 23  1  0  0  0
 23 24  2  0  0  0
 23  1  1  0  0  0
  1  8  1  0  0  0
  1  2  2  0  0  0
  2  3  1  0  0  0
  2  4  1  0  0  0
  4  5  1  0  0  0
  5  6  2  0  0  0
  5  7  1  0  0  0
  7  8  1  0  0  0
  8 10  1  0  0  0
 10 15  1  0  0  0
 10 11  2  0  0  0
 11 12  1  0  0  0
 12 16  1  0  0  0
 12 13  2  0  0  0
 16 17  1  0  0  0
 16 18  2  0  0  0
 13 14  1  0  0  0
 14 15  2  0  0  0
 15 19  1  0  0  0
 19 20  1  0  0  0
 20 21  1  0  0  0
 20 22  1  0  0  0
  4  9  1  0  0  0
M  CHG 1  16   1
M  CHG 1  17  -1
M  END
> <minimizedAffinity>
-7.67150

$$$$
ZINC000072145777


 32 35  0  0  0  0  0  0  0  0999 V2000
   -8.5713   17.8969   -7.4921 C   0  0  0  0  0  0  0  0  0  0  0  0
   -8.1689   17.9221   -8.7591 N   0  0  0  0  0  0  0  0  0  0  0  0
   -8.2203   19.0451   -9.4613 C   0  0  0  0  0  0  0  0  0  0  0  0
   -8.6702   20.1769   -8.9367 N   0  0  0  0  0  0  0  0  0  0  0  0
   -9.0862   20.2229   -7.6822 C   0  0  0  0  0  0  0  0  0  0  0  0
   -9.0537   19.0717   -6.9171 C   0  0  0  0  0  0  0  0  0  0  0  0
   -9.5770   19.3987   -5.5401 C   0  0  0  0  0  0  0  0  0  0  0  0
   -9.5128   20.8744   -5.4286 N   0  0  0  0  0  0  0  0  0  0  0  0
   -9.6389   21.3408   -6.8303 C   0  0  0  0  0  0  0  0  0  0  0  0
   -7.4439   10.7813   -6.2273 H   0  0  0  0  0  0  0  0  0  0  0  0
   -7.4439   10.7813   -6.2273 H   0  0  0  0  0  0  0  0  0  0  0  0
   -7.7626   19.0356  -10.8730 C   0  0  0  0  0  0  0  0  0  0  0  0
   -6.8494   18.0793  -11.3250 C   0  0  0  0  0  0  0  0  0  0  0  0
   -6.4504   18.1062  -12.6463 C   0  0  0  0  0  0  0  0  0  0  0  0
   -6.9189   19.0176  -13.4764 N   0  0  0  0  0  0  0  0  0  0  0  0
   -7.7816   19.9373  -13.0904 C   0  0  0  0  0  0  0  0  0  0  0  0
   -8.2375   19.9789  -11.7879 C   0  0  0  0  0  0  0  0  0  0  0  0
   -8.5175   16.7229   -6.7584 N   0  0  0  0  0  0  0  0  0  0  0  0
   -6.1080   11.3105   -5.4785 H   0  0  0  0  0  0  0  0  0  0  0  0
   -7.4441   15.7558   -7.0012 C   0  0  0  0  0  0  0  0  0  0  0  0
   -7.0320   14.6813   -9.1907 N   0  0  0  0  0  0  0  0  0  0  0  0
   -7.8428   14.8345   -8.1251 C   0  0  0  0  0  0  0  0  0  0  0  0
   -8.8934   14.2308   -8.0708 O   0  0  0  0  0  0  0  0  0  0  0  0
   -6.6608   13.8454  -11.4285 H   0  0  0  0  0  0  0  0  0  0  0  0
   -6.0905   12.0012   -9.3506 C   0  0  0  0  0  0  0  0  0  0  0  0
   -7.0055   12.5875  -10.3947 C   0  0  0  0  0  0  0  0  0  0  0  0
   -7.4133   11.8179  -11.4665 C   0  0  0  0  0  0  0  0  0  0  0  0
   -8.2530   12.3539  -12.4252 C   0  0  0  0  0  0  0  0  0  0  0  0
   -8.6876   13.6642  -12.3141 C   0  0  0  0  0  0  0  0  0  0  0  0
   -9.5077   14.1855  -13.2526 F   0  0  0  0  0  0  0  0  0  0  0  0
   -8.2823   14.4393  -11.2421 C   0  0  0  0  0  0  0  0  0  0  0  0
   -7.4434   13.9004  -10.2764 C   0  0  0  0  0  0  0  0  0  0  0  0
 25 26  1  0  0  0
 26 32  2  0  0  0
 26 27  1  0  0  0
 27 28  2  0  0  0
 28 29  1  0  0  0
 29 30  1  0  0  0
 29 31  2  0  0  0
 31 32  1  0  0  0
 32 21  1  0  0  0
 21 22  1  0  0  0
 22 23  2  0  0  0
 22 20  1  0  0  0
 20 18  1  0  0  0
 18  1  1  0  0  0
  1  6  1  0  0  0
  1  2  2  0  0  0
  2  3  1  0  0  0
  3 12  1  0  0  0
  3  4  2  0  0  0
 12 17  1  0  0  0
 12 13  2  0  0  0
 13 14  1  0  0  0
 14 15  2  0  0  0
 15 16  1  0  0  0
 16 17  2  0  0  0
  4  5  1  0  0  0
  5  9  1  0  0  0
  5  6  2  0  0  0
  6  7  1  0  0  0
  7  8  1  0  0  0
  8  9  1  0  0  0
 21 24  1  0  0  0
 18 19  1  0  0  0
  8 10  1  0  0  0
  8 11  1  0  0  0
M  CHG 1   8   1
M  END
> <minimizedAffinity>
-8.91775

$$$$
ZINC000021927185


 30 32  0  0  0  0  0  0  0  0999 V2000
   -7.8392   18.0194   -9.8317 C   0  0  0  0  0  0  0  0  0  0  0  0
   -6.7945   19.1455   -9.9786 C   0  0  0  0  0  0  0  0  0  0  0  0
   -7.6665   20.4281  -10.0191 C   0  0  0  0  0  0  0  0  0  0  0  0
   -8.8050   20.0636   -9.0340 C   0  0  0  0  0  0  0  0  0  0  0  0
   -9.0602   18.6225   -9.2668 N   0  0  0  0  0  0  0  0  0  0  0  0
   -9.4306   17.9862   -8.0891 C   0  0  0  0  0  0  0  0  0  0  0  0
   -9.9696   16.8093   -8.0082 N   0  0  0  0  0  0  0  0  0  0  0  0
  -10.2563   16.3726   -6.7335 N   0  0  0  0  0  0  0  0  0  0  0  0
   -9.9512   17.1923   -5.7781 C   0  0  0  0  0  0  0  0  0  0  0  0
   -9.2363   18.6454   -6.4685 S   0  0  0  0  0  0  0  0  0  0  0  0
  -10.1516   16.9588   -4.4198 N   0  0  0  0  0  0  0  0  0  0  0  0
   -9.1479   16.3733   -3.5233 C   0  0  0  0  0  0  0  0  0  0  0  0
   -9.6282   16.7062   -2.0934 C   0  0  0  0  0  0  0  0  0  0  0  0
  -11.1519   16.8671   -2.3020 C   0  0  0  0  0  0  0  0  0  0  0  0
  -11.2871   17.2461   -3.7603 C   0  0  0  0  0  0  0  0  0  0  0  0
  -12.2784   17.7318   -4.2628 O   0  0  0  0  0  0  0  0  0  0  0  0
   -7.6086   15.6579   -9.1326 N   0  0  0  0  0  0  0  0  0  0  0  0
   -7.3170   16.9535   -8.9031 C   0  0  0  0  0  0  0  0  0  0  0  0
   -6.6342   17.2616   -7.9493 O   0  0  0  0  0  0  0  0  0  0  0  0
   -6.6726   12.6769   -4.0245 H   0  0  0  0  0  0  0  0  0  0  0  0
   -7.1010   14.6218   -8.2298 C   0  0  0  0  0  0  0  0  0  0  0  0
   -6.1077   13.7329   -8.9809 C   0  0  0  0  0  0  0  0  0  0  0  0
   -6.4496   13.7149  -10.4095 N   0  0  0  0  0  0  0  0  0  0  0  0
   -4.4937   15.6188  -13.0983 H   0  0  0  0  0  0  0  0  0  0  0  0
   -5.2294   13.8954  -11.2073 C   0  0  0  0  0  0  0  0  0  0  0  0
   -6.0413   15.9066  -12.4476 C   0  0  0  0  0  0  0  0  0  0  0  0
   -4.9985   15.3873  -11.4557 C   0  0  0  0  0  0  0  0  0  0  0  0
   -7.0703   12.4273  -10.7483 C   0  0  0  0  0  0  0  0  0  0  0  0
   -7.8801   12.5752  -12.0380 C   0  0  0  0  0  0  0  0  0  0  0  0
   -8.8883   13.7151  -11.8792 C   0  0  0  0  0  0  0  0  0  0  0  0
 26 27  1  0  0  0
 27 25  1  0  0  0
 25 23  1  0  0  0
 23 28  1  0  0  0
 23 22  1  0  0  0
 28 29  1  0  0  0
 29 30  1  0  0  0
 22 21  1  0  0  0
 21 17  1  0  0  0
 17 18  1  0  0  0
 18 19  2  0  0  0
 18  1  1  0  0  0
  1  5  1  0  0  0
  1  2  1  0  0  0
  2  3  1  0  0  0
  3  4  1  0  0  0
  4  5  1  0  0  0
  5  6  1  0  0  0
  6 10  1  0  0  0
  6  7  2  0  0  0
  7  8  1  0  0  0
  8  9  2  0  0  0
  9 11  1  0  0  0
  9 10  1  0  0  0
 11 15  1  0  0  0
 11 12  1  0  0  0
 12 13  1  0  0  0
 13 14  1  0  0  0
 14 15  1  0  0  0
 15 16  2  0  0  0
 23 24  1  0  0  0
 17 20  1  0  0  0
M  CHG 1  23   1
M  END
> <minimizedAffinity>
-6.74777

$$$$
ZINC000069553978


 21 21  0  0  0  0  0  0  0  0999 V2000
   -6.4934   14.6758  -11.1619 N   0  0  0  0  0  0  0  0  0  0  0  0
   -6.0956   14.6457  -12.4492 C   0  0  0  0  0  0  0  0  0  0  0  0
   -6.3805   13.6957  -13.1512 O   0  0  0  0  0  0  0  0  0  0  0  0
   -9.8963   15.8113  -10.2841 H   0  0  0  0  0  0  0  0  0  0  0  0
   -7.2693   13.5630  -10.6088 C   0  0  0  0  0  0  0  0  0  0  0  0
   -6.4817   12.8993   -9.5087 C   0  0  0  0  0  0  0  0  0  0  0  0
   -6.9005   11.8786   -8.9897 O   0  0  0  0  0  0  0  0  0  0  0  0
   -5.4259   13.3830   -9.1377 O   0  0  0  0  0  0  0  0  0  0  0  0
   -9.7730   15.5859  -11.9128 H   0  0  0  0  0  0  0  0  0  0  0  0
   -8.5887   14.0925  -10.0435 C   0  0  0  0  0  0  0  0  0  0  0  0
   -7.8419   17.3482   -7.6349 C   0  0  0  0  0  0  0  0  0  0  0  0
   -8.1089   16.1844   -8.4959 C   0  0  0  0  0  0  0  0  0  0  0  0
   -8.3218   15.2563   -9.1825 C   0  0  0  0  0  0  0  0  0  0  0  0
   -5.3825   15.6684  -12.9575 O   0  0  0  0  0  0  0  0  0  0  0  0
   -5.0829   16.7721  -12.0629 C   0  0  0  0  0  0  0  0  0  0  0  0
   -6.1005   17.8665  -12.2570 C   0  0  0  0  0  0  0  0  0  0  0  0
   -6.8189   18.3420  -11.1759 C   0  0  0  0  0  0  0  0  0  0  0  0
   -7.7524   19.3459  -11.3540 C   0  0  0  0  0  0  0  0  0  0  0  0
   -7.9672   19.8746  -12.6132 C   0  0  0  0  0  0  0  0  0  0  0  0
   -7.2480   19.3997  -13.6940 C   0  0  0  0  0  0  0  0  0  0  0  0
   -6.3115   18.3989  -13.5152 C   0  0  0  0  0  0  0  0  0  0  0  0
 11 12  1  0  0  0
 12 13  3  0  0  0
 13 10  1  0  0  0
 10  5  1  0  0  0
  5  1  1  0  0  0
  5  6  1  0  0  0
  1  2  1  0  0  0
  2  3  2  0  0  0
  2 14  1  0  0  0
 14 15  1  0  0  0
 15 16  1  0  0  0
 16 21  2  0  0  0
 16 17  1  0  0  0
 17 18  2  0  0  0
 18 19  1  0  0  0
 19 20  2  0  0  0
 20 21  1  0  0  0
  6  7  2  0  0  0
  6  8  1  0  0  0
  1  4  1  0  0  0
  8  9  1  0  0  0
M  END
> <minimizedAffinity>
-6.76312

$$$$
ZINC000101764640


 30 32  0  0  0  0  0  0  0  0999 V2000
   -7.4105   18.4767  -10.7260 C   0  0  0  0  0  0  0  0  0  0  0  0
   -6.5771   18.0214  -11.4814 O   0  0  0  0  0  0  0  0  0  0  0  0
   -7.4948   18.0195   -9.4609 N   0  0  0  0  0  0  0  0  0  0  0  0
   -8.4074   18.4535   -8.5016 N   0  0  0  0  0  0  0  0  0  0  0  0
   -8.2915   17.8641   -7.3603 C   0  0  0  0  0  0  0  0  0  0  0  0
   -7.1665   16.8560   -7.4249 C   0  0  0  0  0  0  0  0  0  0  0  0
   -6.6422   16.9763   -8.8694 C   0  0  0  0  0  0  0  0  0  0  0  0
   -9.1257   18.1310   -6.1783 C   0  0  0  0  0  0  0  0  0  0  0  0
   -9.3569   19.4478   -5.7458 C   0  0  0  0  0  0  0  0  0  0  0  0
   -8.8224   20.4767   -6.4026 O   0  0  0  0  0  0  0  0  0  0  0  0
  -10.1321   19.6596   -4.6505 N   0  0  0  0  0  0  0  0  0  0  0  0
  -10.3792   21.0288   -4.1916 C   0  0  0  0  0  0  0  0  0  0  0  0
  -10.6753   18.6265   -3.9835 C   0  0  0  0  0  0  0  0  0  0  0  0
  -11.3654   18.8471   -3.0072 O   0  0  0  0  0  0  0  0  0  0  0  0
  -10.4735   17.3552   -4.3714 N   0  0  0  0  0  0  0  0  0  0  0  0
  -11.0857   16.2607   -3.6138 C   0  0  0  0  0  0  0  0  0  0  0  0
   -9.7130   17.0747   -5.4613 C   0  0  0  0  0  0  0  0  0  0  0  0
   -9.5176   15.8121   -5.8402 O   0  0  0  0  0  0  0  0  0  0  0  0
   -7.2106   14.2483   -9.2054 H   0  0  0  0  0  0  0  0  0  0  0  0
   -6.8010   15.6687   -9.6017 C   0  0  0  0  0  0  0  0  0  0  0  0
   -5.6938   15.0379  -10.1376 C   0  0  0  0  0  0  0  0  0  0  0  0
   -5.8393   13.8385  -10.8092 C   0  0  0  0  0  0  0  0  0  0  0  0
   -7.0920   13.2697  -10.9446 C   0  0  0  0  0  0  0  0  0  0  0  0
   -8.1989   13.8998  -10.4075 C   0  0  0  0  0  0  0  0  0  0  0  0
   -8.0528   15.0973   -9.7326 C   0  0  0  0  0  0  0  0  0  0  0  0
   -7.2479   11.9856  -11.6642 N   0  0  0  0  0  0  0  0  0  0  0  0
   -8.2494   11.7755  -12.3250 O   0  0  0  0  0  0  0  0  0  0  0  0
   -6.3748   11.1392  -11.5959 O   0  0  0  0  0  0  0  0  0  0  0  0
   -7.9984   19.9393  -12.6403 C   0  0  0  0  0  0  0  0  0  0  0  0
   -8.3513   19.5533  -11.2024 C   0  0  0  0  0  0  0  0  0  0  0  0
 29 30  1  0  0  0
 30  1  1  0  0  0
  1  2  2  0  0  0
  1  3  1  0  0  0
  3  7  1  0  0  0
  3  4  1  0  0  0
  4  5  2  0  0  0
  5  8  1  0  0  0
  5  6  1  0  0  0
  8 17  1  0  0  0
  8  9  2  0  0  0
  9 10  1  0  0  0
  9 11  1  0  0  0
 11 12  1  0  0  0
 11 13  1  0  0  0
 13 14  2  0  0  0
 13 15  1  0  0  0
 15 16  1  0  0  0
 15 17  1  0  0  0
 17 18  2  0  0  0
  6  7  1  0  0  0
  7 20  1  0  0  0
 20 25  1  0  0  0
 20 21  2  0  0  0
 21 22  1  0  0  0
 22 23  2  0  0  0
 23 26  1  0  0  0
 23 24  1  0  0  0
 26 27  1  0  0  0
 26 28  2  0  0  0
 24 25  2  0  0  0
 10 19  1  0  0  0
M  CHG 1  26   1
M  CHG 1  27  -1
M  END
> <minimizedAffinity>
-8.90181

$$$$
ZINC000095389264


 26 28  0  0  0  0  0  0  0  0999 V2000
   -7.1205   15.7234  -11.3587 N   0  0  0  0  0  0  0  0  0  0  0  0
   -6.9645   17.0515  -11.5265 C   0  0  0  0  0  0  0  0  0  0  0  0
   -6.3354   17.4744  -12.4766 O   0  0  0  0  0  0  0  0  0  0  0  0
   -3.3186   13.7438   -9.4683 H   0  0  0  0  0  0  0  0  0  0  0  0
   -7.5587   17.9942  -10.5545 C   0  0  0  0  0  0  0  0  0  0  0  0
   -8.0673   19.2269  -10.9997 C   0  0  0  0  0  0  0  0  0  0  0  0
   -8.6176   20.1088  -10.1263 C   0  0  0  0  0  0  0  0  0  0  0  0
   -8.6849   19.7958   -8.7566 C   0  0  0  0  0  0  0  0  0  0  0  0
   -9.2240   20.6534   -7.8824 N   0  0  0  0  0  0  0  0  0  0  0  0
   -9.2760   20.3390   -6.6084 C   0  0  0  0  0  0  0  0  0  0  0  0
   -9.8837   21.3069   -5.6260 C   0  0  0  0  0  0  0  0  0  0  0  0
   -8.7744   19.1164   -6.1537 C   0  0  0  0  0  0  0  0  0  0  0  0
   -8.8468   18.7798   -4.6865 C   0  0  0  0  0  0  0  0  0  0  0  0
   -8.2412   18.2579   -6.9916 N   0  0  0  0  0  0  0  0  0  0  0  0
   -8.1757   18.5555   -8.2948 C   0  0  0  0  0  0  0  0  0  0  0  0
   -7.6151   17.6540   -9.2138 C   0  0  0  0  0  0  0  0  0  0  0  0
   -6.5318   14.7894  -12.3218 C   0  0  0  0  0  0  0  0  0  0  0  0
   -7.5988   13.7964  -12.7870 C   0  0  0  0  0  0  0  0  0  0  0  0
   -5.3824   14.0288  -11.6574 C   0  0  0  0  0  0  0  0  0  0  0  0
   -5.7404   14.5526   -6.6045 C   0  0  0  0  0  0  0  0  0  0  0  0
   -5.8787   13.9977   -7.9989 C   0  0  0  0  0  0  0  0  0  0  0  0
   -6.4811   12.8830   -8.3247 N   0  0  0  0  0  0  0  0  0  0  0  0
   -6.3902   12.7263   -9.7137 N   0  0  0  0  0  0  0  0  0  0  0  0
   -5.7135   13.7841  -10.2078 C   0  0  0  0  0  0  0  0  0  0  0  0
   -5.3903   14.5886   -9.1688 C   0  0  0  0  0  0  0  0  0  0  0  0
   -5.8776   13.9966   -7.9941 H   0  0  0  0  0  0  0  0  0  0  0  0
 20 21  1  0  0  0
 21 25  1  0  0  0
 21 22  2  0  0  0
 22 23  1  0  0  0
 23 24  1  0  0  0
 24 19  1  0  0  0
 24 25  2  0  0  0
 19 17  1  0  0  0
 17 18  1  0  0  0
 17  1  1  0  0  0
  1  2  1  0  0  0
  2  3  2  0  0  0
  2  5  1  0  0  0
  5 16  1  0  0  0
  5  6  2  0  0  0
  6  7  1  0  0  0
  7  8  2  0  0  0
  8 15  1  0  0  0
  8  9  1  0  0  0
  9 10  2  0  0  0
 10 11  1  0  0  0
 10 12  1  0  0  0
 12 13  1  0  0  0
 12 14  2  0  0  0
 14 15  1  0  0  0
 15 16  2  0  0  0
 23 26  1  0  0  0
  1  4  1  0  0  0
M  END
> <minimizedAffinity>
-8.13495

$$$$
ZINC000042775688


 19 20  0  0  0  0  0  0  0  0999 V2000
   -6.4009   17.6339  -11.3988 C   0  0  0  0  0  0  0  0  0  0  0  0
   -7.1054   18.7809  -11.0894 C   0  0  0  0  0  0  0  0  0  0  0  0
   -7.7713   18.8800   -9.8805 C   0  0  0  0  0  0  0  0  0  0  0  0
   -8.7344   20.4520   -9.4593 Br  0  0  0  0  0  0  0  0  0  0  0  0
   -7.7338   17.8307   -8.9800 C   0  0  0  0  0  0  0  0  0  0  0  0
   -7.0304   16.6816   -9.2857 C   0  0  0  0  0  0  0  0  0  0  0  0
   -6.3665   16.5781  -10.4991 C   0  0  0  0  0  0  0  0  0  0  0  0
   -6.1605   16.8612  -13.5947 O   0  0  0  0  0  0  0  0  0  0  0  0
   -5.6884   17.5286  -12.6917 N   0  0  0  0  0  0  0  0  0  0  0  0
   -4.6323   18.1132  -12.8545 O   0  0  0  0  0  0  0  0  0  0  0  0
   -5.6740   15.4484  -10.8018 O   0  0  0  0  0  0  0  0  0  0  0  0
   -6.3612   14.2052  -10.6469 C   0  0  0  0  0  0  0  0  0  0  0  0
   -6.8770   13.7321  -12.0090 C   0  0  0  0  0  0  0  0  0  0  0  0
   -7.5418   12.3632  -11.8491 C   0  0  0  0  0  0  0  0  0  0  0  0
   -6.5643   11.3978  -11.3323 N   0  0  0  0  0  0  0  0  0  0  0  0
   -6.1188   11.8075   -9.9950 C   0  0  0  0  0  0  0  0  0  0  0  0
   -5.3993   13.1551  -10.0836 C   0  0  0  0  0  0  0  0  0  0  0  0
   -3.7558   18.9847  -10.8816 H   0  0  0  0  0  0  0  0  0  0  0  0
   -3.7558   18.9847  -10.8816 H   0  0  0  0  0  0  0  0  0  0  0  0
  8  9  1  0  0  0
  9 10  2  0  0  0
  9  1  1  0  0  0
  1  7  2  0  0  0
  1  2  1  0  0  0
  2  3  2  0  0  0
  3  4  1  0  0  0
  3  5  1  0  0  0
  5  6  2  0  0  0
  6  7  1  0  0  0
  7 11  1  0  0  0
 11 12  1  0  0  0
 12 17  1  0  0  0
 12 13  1  0  0  0
 13 14  1  0  0  0
 14 15  1  0  0  0
 15 16  1  0  0  0
 16 17  1  0  0  0
 15 18  1  0  0  0
 15 19  1  0  0  0
M  CHG 1   8  -1
M  CHG 1   9   1
M  CHG 1  15   1
M  END
> <minimizedAffinity>
-6.10053

$$$$
ZINC000001400822


 22 23  0  0  0  0  0  0  0  0999 V2000
   -8.9920   19.7689   -8.6906 C   0  0  0  0  0  0  0  0  0  0  0  0
   -8.1274   19.1418   -9.6934 N   0  0  0  0  0  0  0  0  0  0  0  0
   -7.9905   19.7007  -10.9147 C   0  0  0  0  0  0  0  0  0  0  0  0
   -8.5815   20.7301  -11.1972 O   0  0  0  0  0  0  0  0  0  0  0  0
   -7.1534   19.0744  -11.8547 C   0  0  0  0  0  0  0  0  0  0  0  0
   -6.5085   17.9243  -11.5014 C   0  0  0  0  0  0  0  0  0  0  0  0
   -6.6755   17.4117  -10.2850 N   0  0  0  0  0  0  0  0  0  0  0  0
   -7.4546   17.9959   -9.3952 C   0  0  0  0  0  0  0  0  0  0  0  0
   -5.6054   17.2340  -12.4909 C   0  0  0  0  0  0  0  0  0  0  0  0
   -6.3121   16.9855  -13.6725 F   0  0  0  0  0  0  0  0  0  0  0  0
   -4.5058   18.0530  -12.7687 F   0  0  0  0  0  0  0  0  0  0  0  0
   -5.1604   16.0229  -11.9502 F   0  0  0  0  0  0  0  0  0  0  0  0
   -7.6392   17.2737   -7.7985 S   0  0  0  0  0  0  0  0  0  0  0  0
   -8.4919   15.7405   -8.2438 C   0  0  0  0  0  0  0  0  0  0  0  0
   -7.4907   14.7417   -8.7643 C   0  0  0  0  0  0  0  0  0  0  0  0
   -6.1981   14.7397   -8.2718 C   0  0  0  0  0  0  0  0  0  0  0  0
   -5.2722   13.8259   -8.7440 C   0  0  0  0  0  0  0  0  0  0  0  0
   -5.6334   12.9100   -9.7100 C   0  0  0  0  0  0  0  0  0  0  0  0
   -6.9368   12.9061  -10.2113 C   0  0  0  0  0  0  0  0  0  0  0  0
   -7.8670   13.8277   -9.7269 C   0  0  0  0  0  0  0  0  0  0  0  0
   -7.3189   11.9580  -11.2141 C   0  0  0  0  0  0  0  0  0  0  0  0
   -7.6219   11.2058  -12.0096 N   0  0  0  0  0  0  0  0  0  0  0  0
  1  2  1  0  0  0
  2  8  1  0  0  0
  2  3  1  0  0  0
  3  4  2  0  0  0
  3  5  1  0  0  0
  5  6  2  0  0  0
  6  9  1  0  0  0
  6  7  1  0  0  0
  9 10  1  0  0  0
  9 11  1  0  0  0
  9 12  1  0  0  0
  7  8  2  0  0  0
  8 13  1  0  0  0
 13 14  1  0  0  0
 14 15  1  0  0  0
 15 20  1  0  0  0
 15 16  2  0  0  0
 16 17  1  0  0  0
 17 18  2  0  0  0
 18 19  1  0  0  0
 19 21  1  0  0  0
 19 20  2  0  0  0
 21 22  3  0  0  0
M  END
> <minimizedAffinity>
-7.58693

$$$$
ZINC000020354946


 30 33  0  0  0  0  0  0  0  0999 V2000
   -7.3808   17.4838   -7.5896 C   0  0  0  0  0  0  0  0  0  0  0  0
   -8.0853   18.4756   -7.1071 N   0  0  0  0  0  0  0  0  0  0  0  0
   -8.9617   18.0144   -6.2113 C   0  0  0  0  0  0  0  0  0  0  0  0
   -8.7864   16.6385   -6.1344 C   0  0  0  0  0  0  0  0  0  0  0  0
   -9.5951   15.8904   -5.2516 C   0  0  0  0  0  0  0  0  0  0  0  0
   -9.4602   14.6830   -5.1660 O   0  0  0  0  0  0  0  0  0  0  0  0
  -10.5190   16.5288   -4.5035 N   0  0  0  0  0  0  0  0  0  0  0  0
  -10.6781   17.8608   -4.5884 C   0  0  0  0  0  0  0  0  0  0  0  0
  -11.5208   18.4020   -3.8987 O   0  0  0  0  0  0  0  0  0  0  0  0
   -9.9272   18.6110   -5.4166 N   0  0  0  0  0  0  0  0  0  0  0  0
  -10.1329   20.0602   -5.4793 C   0  0  0  0  0  0  0  0  0  0  0  0
   -7.7787   16.3270   -7.0249 N   0  0  0  0  0  0  0  0  0  0  0  0
  -10.4953   17.3722  -13.7319 H   0  0  0  0  0  0  0  0  0  0  0  0
   -6.2934   17.6149   -8.6246 C   0  0  0  0  0  0  0  0  0  0  0  0
   -7.0137   19.0791  -12.5214 N   0  0  0  0  0  0  0  0  0  0  0  0
   -6.7372   17.6442  -12.3650 C   0  0  0  0  0  0  0  0  0  0  0  0
   -6.0394   17.4051  -11.0238 C   0  0  0  0  0  0  0  0  0  0  0  0
   -6.8957   17.8953   -9.9348 N   0  0  0  0  0  0  0  0  0  0  0  0
   -7.1723   19.3301  -10.0912 C   0  0  0  0  0  0  0  0  0  0  0  0
   -7.8701   19.5692  -11.4322 C   0  0  0  0  0  0  0  0  0  0  0  0
   -7.1444   18.3137  -14.8439 C   0  0  0  0  0  0  0  0  0  0  0  0
   -7.6161   19.3593  -13.8315 C   0  0  0  0  0  0  0  0  0  0  0  0
   -7.2386   14.9929   -7.2982 C   0  0  0  0  0  0  0  0  0  0  0  0
   -7.6272   14.5692   -8.6911 C   0  0  0  0  0  0  0  0  0  0  0  0
   -8.9498   14.6280   -9.0877 C   0  0  0  0  0  0  0  0  0  0  0  0
   -9.3065   14.2393  -10.3658 C   0  0  0  0  0  0  0  0  0  0  0  0
   -8.3407   13.7913  -11.2473 C   0  0  0  0  0  0  0  0  0  0  0  0
   -7.0175   13.7321  -10.8518 C   0  0  0  0  0  0  0  0  0  0  0  0
   -6.6592   14.1266   -9.5753 C   0  0  0  0  0  0  0  0  0  0  0  0
   -4.9976   14.0526   -9.0779 Cl  0  0  0  0  0  0  0  0  0  0  0  0
 21 22  1  0  0  0
 22 15  1  0  0  0
 15 20  1  0  0  0
 15 16  1  0  0  0
 16 17  1  0  0  0
 17 18  1  0  0  0
 18 14  1  0  0  0
 18 19  1  0  0  0
 14  1  1  0  0  0
  1 12  1  0  0  0
  1  2  2  0  0  0
  2  3  1  0  0  0
  3 10  1  0  0  0
  3  4  2  0  0  0
  4  5  1  0  0  0
  4 12  1  0  0  0
  5  6  2  0  0  0
  5  7  1  0  0  0
  7  8  1  0  0  0
  8  9  2  0  0  0
  8 10  1  0  0  0
 10 11  1  0  0  0
 12 23  1  0  0  0
 23 24  1  0  0  0
 24 29  1  0  0  0
 24 25  2  0  0  0
 25 26  1  0  0  0
 26 27  2  0  0  0
 27 28  1  0  0  0
 28 29  2  0  0  0
 29 30  1  0  0  0
 19 20  1  0  0  0
  7 13  1  0  0  0
M  END
> <minimizedAffinity>
-7.29394

$$$$
ZINC000257268433


 32 34  0  0  0  0  0  0  0  0999 V2000
   -8.9283   17.1494   -6.7778 C   0  0  0  0  0  0  0  0  0  0  0  0
   -7.9093   17.9842   -6.2238 O   0  0  0  0  0  0  0  0  0  0  0  0
   -8.3965   15.7665   -7.0200 C   0  0  0  0  0  0  0  0  0  0  0  0
   -6.8512   15.7804   -7.1174 C   0  0  0  0  0  0  0  0  0  0  0  0
   -6.3764   17.0404   -7.8833 C   0  0  0  0  0  0  0  0  0  0  0  0
   -7.1447   17.4024   -9.0392 N   0  0  0  0  0  0  0  0  0  0  0  0
   -6.8454   16.8888  -10.2487 C   0  0  0  0  0  0  0  0  0  0  0  0
   -7.5015   17.2017  -11.2196 O   0  0  0  0  0  0  0  0  0  0  0  0
   -8.2882   18.3625   -8.8796 C   0  0  0  0  0  0  0  0  0  0  0  0
   -9.3480   17.6681   -8.1494 C   0  0  0  0  0  0  0  0  0  0  0  0
  -14.2266   20.5496   -6.6375 H   0  0  0  0  0  0  0  0  0  0  0  0
  -10.1357   17.0957   -5.8397 C   0  0  0  0  0  0  0  0  0  0  0  0
  -11.0977   18.5632    0.1682 C   0  0  0  0  0  0  0  0  0  0  0  0
  -11.0528   19.4454   -1.0527 C   0  0  0  0  0  0  0  0  0  0  0  0
  -11.6276   20.5133   -1.0506 O   0  0  0  0  0  0  0  0  0  0  0  0
  -10.3739   19.0477   -2.1470 N   0  0  0  0  0  0  0  0  0  0  0  0
   -9.6745   17.7537   -2.1744 C   0  0  0  0  0  0  0  0  0  0  0  0
  -10.0894   17.0042   -3.4446 C   0  0  0  0  0  0  0  0  0  0  0  0
   -9.8395   17.8531   -4.6164 N   0  0  0  0  0  0  0  0  0  0  0  0
  -10.6965   19.0442   -4.5629 C   0  0  0  0  0  0  0  0  0  0  0  0
  -10.3164   19.8924   -3.3500 C   0  0  0  0  0  0  0  0  0  0  0  0
   -8.7227   21.5031   -3.0327 H   0  0  0  0  0  0  0  0  0  0  0  0
   -5.6954   15.9258  -10.3948 C   0  0  0  0  0  0  0  0  0  0  0  0
   -6.2029   14.6211  -10.8266 N   0  0  0  0  0  0  0  0  0  0  0  0
   -6.7929   13.7880   -9.9154 C   0  0  0  0  0  0  0  0  0  0  0  0
   -7.2610   12.5858  -10.3136 C   0  0  0  0  0  0  0  0  0  0  0  0
   -7.1303   12.2114  -11.6727 C   0  0  0  0  0  0  0  0  0  0  0  0
   -7.5451   11.1323  -12.0555 O   0  0  0  0  0  0  0  0  0  0  0  0
   -6.5427   13.0609  -12.5394 N   0  0  0  0  0  0  0  0  0  0  0  0
   -6.0894   14.2556  -12.1165 C   0  0  0  0  0  0  0  0  0  0  0  0
   -5.5620   15.0114  -12.9094 O   0  0  0  0  0  0  0  0  0  0  0  0
  -11.9959   23.9005   -8.1616 H   0  0  0  0  0  0  0  0  0  0  0  0
 13 14  1  0  0  0
 14 15  2  0  0  0
 14 16  1  0  0  0
 16 21  1  0  0  0
 16 17  1  0  0  0
 17 18  1  0  0  0
 18 19  1  0  0  0
 19 12  1  0  0  0
 19 20  1  0  0  0
  1 12  1  0  0  0
  1 10  1  0  0  0
  1  2  1  0  0  0
  1  3  1  0  0  0
  3  4  1  0  0  0
  4  5  1  0  0  0
  5  6  1  0  0  0
  6  7  1  0  0  0
  6  9  1  0  0  0
  7  8  2  0  0  0
  7 23  1  0  0  0
 23 24  1  0  0  0
 24 30  1  0  0  0
 24 25  1  0  0  0
 25 26  2  0  0  0
 26 27  1  0  0  0
 27 28  2  0  0  0
 27 29  1  0  0  0
 29 30  1  0  0  0
 30 31  2  0  0  0
  9 10  1  0  0  0
 20 21  1  0  0  0
 19 22  1  0  0  0
  2 11  1  0  0  0
 29 32  1  0  0  0
M  CHG 1  19   1
M  END
> <minimizedAffinity>
-7.38843

$$$$
ZINC000005489071


 28 30  0  0  0  0  0  0  0  0999 V2000
   -9.7060   19.9020   -5.7963 N   0  0  0  0  0  0  0  0  0  0  0  0
  -10.3511   19.2189   -4.7750 C   0  0  0  0  0  0  0  0  0  0  0  0
  -10.8897   18.0090   -4.8735 N   0  0  0  0  0  0  0  0  0  0  0  0
  -10.3381   20.2040   -3.3513 S   0  0  0  0  0  0  0  0  0  0  0  0
   -9.4566   21.5946   -4.1228 C   0  0  0  0  0  0  0  0  0  0  0  0
  -10.0921   22.9677   -3.8411 C   0  0  0  0  0  0  0  0  0  0  0  0
   -9.6257   23.9097   -5.3553 S   0  0  0  0  0  0  0  0  0  0  0  0
  -10.7337   24.6873   -5.7875 O   0  0  0  0  0  0  0  0  0  0  0  0
   -8.3614   24.5270   -5.1563 O   0  0  0  0  0  0  0  0  0  0  0  0
   -9.4314   22.4513   -6.4648 C   0  0  0  0  0  0  0  0  0  0  0  0
   -9.8342   21.2992   -5.6016 C   0  0  0  0  0  0  0  0  0  0  0  0
   -8.7220   19.6749  -10.6075 C   0  0  0  0  0  0  0  0  0  0  0  0
   -8.5285   19.1691   -9.2012 C   0  0  0  0  0  0  0  0  0  0  0  0
   -7.6751   18.1080   -8.9601 C   0  0  0  0  0  0  0  0  0  0  0  0
   -7.4945   17.6412   -7.6710 C   0  0  0  0  0  0  0  0  0  0  0  0
   -6.5631   16.4849   -7.4128 C   0  0  0  0  0  0  0  0  0  0  0  0
   -8.1665   18.2336   -6.6199 C   0  0  0  0  0  0  0  0  0  0  0  0
   -9.0243   19.2994   -6.8587 C   0  0  0  0  0  0  0  0  0  0  0  0
   -9.1995   19.7694   -8.1538 C   0  0  0  0  0  0  0  0  0  0  0  0
  -11.4838   17.4573   -3.8183 C   0  0  0  0  0  0  0  0  0  0  0  0
  -12.6668   17.6514   -3.6163 O   0  0  0  0  0  0  0  0  0  0  0  0
  -10.6902   16.5919   -2.8737 C   0  0  0  0  0  0  0  0  0  0  0  0
   -9.2651   16.4290   -3.4065 C   0  0  0  0  0  0  0  0  0  0  0  0
   -8.8895   14.9459   -3.4128 C   0  0  0  0  0  0  0  0  0  0  0  0
   -9.5653   14.2615   -4.5728 C   0  0  0  0  0  0  0  0  0  0  0  0
  -10.1912   13.2309   -4.3921 O   0  0  0  0  0  0  0  0  0  0  0  0
   -9.4864   14.7384   -5.6922 O   0  0  0  0  0  0  0  0  0  0  0  0
   -5.2910   15.8997    5.6542 H   0  0  0  0  0  0  0  0  0  0  0  0
 12 13  1  0  0  0
 13 19  2  0  0  0
 13 14  1  0  0  0
 14 15  2  0  0  0
 15 16  1  0  0  0
 15 17  1  0  0  0
 17 18  2  0  0  0
 18  1  1  0  0  0
 18 19  1  0  0  0
  1 11  1  0  0  0
  1  2  1  0  0  0
  2  3  2  0  0  0
  2  4  1  0  0  0
  3 20  1  0  0  0
 20 21  2  0  0  0
 20 22  1  0  0  0
 22 23  1  0  0  0
 23 24  1  0  0  0
 24 25  1  0  0  0
 25 26  2  0  0  0
 25 27  1  0  0  0
  4  5  1  0  0  0
  5 11  1  0  0  0
  5  6  1  0  0  0
  6  7  1  0  0  0
  7  8  2  0  0  0
  7  9  2  0  0  0
  7 10  1  0  0  0
 10 11  1  0  0  0
 27 28  1  0  0  0
M  END
> <minimizedAffinity>
-7.67947

$$$$
ZINC000055393698


 21 22  0  0  0  0  0  0  0  0999 V2000
   -7.4357   15.6895   -9.6695 N   0  0  0  0  0  0  0  0  0  0  0  0
   -8.2593   14.6230   -9.6915 C   0  0  0  0  0  0  0  0  0  0  0  0
   -8.5013   14.0225   -8.6659 O   0  0  0  0  0  0  0  0  0  0  0  0
   -7.1433   16.4148  -10.9083 C   0  0  0  0  0  0  0  0  0  0  0  0
   -5.6282   16.5448  -11.0778 C   0  0  0  0  0  0  0  0  0  0  0  0
   -6.4948   17.7224  -13.1037 C   0  0  0  0  0  0  0  0  0  0  0  0
   -5.3093   16.9532  -12.5173 C   0  0  0  0  0  0  0  0  0  0  0  0
   -6.8328   16.1237   -8.4068 C   0  0  0  0  0  0  0  0  0  0  0  0
   -7.7474   17.1093   -7.7261 C   0  0  0  0  0  0  0  0  0  0  0  0
   -8.3418   16.8497   -6.5605 C   0  0  0  0  0  0  0  0  0  0  0  0
   -9.3264   18.2261   -6.0812 S   0  0  0  0  0  0  0  0  0  0  0  0
   -8.8616   19.1025   -7.5335 C   0  0  0  0  0  0  0  0  0  0  0  0
   -8.0297   18.3547   -8.2601 C   0  0  0  0  0  0  0  0  0  0  0  0
   -8.8793   14.1764  -10.9903 C   0  0  0  0  0  0  0  0  0  0  0  0
   -8.3306   12.7998  -11.3708 C   0  0  0  0  0  0  0  0  0  0  0  0
   -6.8852   12.9296  -11.7764 C   0  0  0  0  0  0  0  0  0  0  0  0
   -6.4369   13.4505  -12.8860 N   0  0  0  0  0  0  0  0  0  0  0  0
   -5.1521   13.3980  -12.9009 N   0  0  0  0  0  0  0  0  0  0  0  0
   -4.7223   12.8412  -11.8015 C   0  0  0  0  0  0  0  0  0  0  0  0
   -5.8096   12.5326  -11.0542 N   0  0  0  0  0  0  0  0  0  0  0  0
   -5.8206   11.8920   -9.7368 C   0  0  0  0  0  0  0  0  0  0  0  0
  6  7  1  0  0  0
  7  5  1  0  0  0
  5  4  1  0  0  0
  4  1  1  0  0  0
  1  8  1  0  0  0
  1  2  1  0  0  0
  8  9  1  0  0  0
  9 13  1  0  0  0
  9 10  2  0  0  0
 10 11  1  0  0  0
 11 12  1  0  0  0
 12 13  2  0  0  0
  2  3  2  0  0  0
  2 14  1  0  0  0
 14 15  1  0  0  0
 15 16  1  0  0  0
 16 20  1  0  0  0
 16 17  2  0  0  0
 17 18  1  0  0  0
 18 19  2  0  0  0
 19 20  1  0  0  0
 20 21  1  0  0  0
M  END
> <minimizedAffinity>
-6.29219

$$$$
ZINC000095869849


 26 27  0  0  0  0  0  0  0  0999 V2000
   -5.8973   12.3703  -10.4548 N   0  0  0  0  0  0  0  0  0  0  0  0
   -2.8848   14.0925   -5.4455 H   0  0  0  0  0  0  0  0  0  0  0  0
   -2.8848   14.0925   -5.4455 H   0  0  0  0  0  0  0  0  0  0  0  0
   -6.2825   12.6063   -9.0571 C   0  0  0  0  0  0  0  0  0  0  0  0
   -8.2050   17.2418   -6.6082 C   0  0  0  0  0  0  0  0  0  0  0  0
   -7.8679   17.4347   -8.0882 C   0  0  0  0  0  0  0  0  0  0  0  0
   -8.4889   18.7423   -8.5837 C   0  0  0  0  0  0  0  0  0  0  0  0
   -6.3479   17.5010   -8.2582 C   0  0  0  0  0  0  0  0  0  0  0  0
   -5.7402   16.2103   -7.7468 C   0  0  0  0  0  0  0  0  0  0  0  0
   -4.8078   16.2068   -6.9713 O   0  0  0  0  0  0  0  0  0  0  0  0
   -6.3478   14.9482   -8.2469 C   0  0  0  0  0  0  0  0  0  0  0  0
   -5.6079   13.8567   -8.5544 C   0  0  0  0  0  0  0  0  0  0  0  0
   -7.8286   14.9742   -8.3837 C   0  0  0  0  0  0  0  0  0  0  0  0
   -8.5131   14.0140   -8.1004 O   0  0  0  0  0  0  0  0  0  0  0  0
   -8.4367   16.2647   -8.8952 C   0  0  0  0  0  0  0  0  0  0  0  0
   -6.8269   13.0781  -11.3452 C   0  0  0  0  0  0  0  0  0  0  0  0
   -7.8155   12.0786  -11.9490 C   0  0  0  0  0  0  0  0  0  0  0  0
   -7.2634   10.7623  -11.8813 O   0  0  0  0  0  0  0  0  0  0  0  0
   -8.2515   15.8955   -4.9102 H   0  0  0  0  0  0  0  0  0  0  0  0
   -6.0402   13.7585  -12.4673 C   0  0  0  0  0  0  0  0  0  0  0  0
   -6.0511   15.2505  -12.2551 C   0  0  0  0  0  0  0  0  0  0  0  0
   -7.2480   15.9419  -12.2692 C   0  0  0  0  0  0  0  0  0  0  0  0
   -7.2579   17.3105  -12.0747 C   0  0  0  0  0  0  0  0  0  0  0  0
   -6.0710   17.9875  -11.8655 C   0  0  0  0  0  0  0  0  0  0  0  0
   -4.8742   17.2959  -11.8504 C   0  0  0  0  0  0  0  0  0  0  0  0
   -4.8647   15.9268  -12.0408 C   0  0  0  0  0  0  0  0  0  0  0  0
  5  6  1  0  0  0
  6 15  1  0  0  0
  6  7  1  0  0  0
  6  8  1  0  0  0
  8  9  1  0  0  0
  9 10  2  0  0  0
  9 11  1  0  0  0
 11 12  2  0  0  0
 11 13  1  0  0  0
 12  4  1  0  0  0
  4  1  1  0  0  0
  1 16  1  0  0  0
 16 17  1  0  0  0
 16 20  1  0  0  0
 17 18  1  0  0  0
 20 21  1  0  0  0
 21 26  1  0  0  0
 21 22  2  0  0  0
 22 23  1  0  0  0
 23 24  2  0  0  0
 24 25  1  0  0  0
 25 26  2  0  0  0
 13 14  2  0  0  0
 13 15  1  0  0  0
  1  2  1  0  0  0
  1  3  1  0  0  0
 18 19  1  0  0  0
M  CHG 1   1   1
M  END
> <minimizedAffinity>
-7.47987

$$$$
ZINC000257259334


 28 29  0  0  0  0  0  0  0  0999 V2000
   -7.5550   16.0934   -8.8223 C   0  0  0  0  0  0  0  0  0  0  0  0
   -6.5297   16.9631   -8.3380 O   0  0  0  0  0  0  0  0  0  0  0  0
   -7.4285   15.9983  -10.3396 C   0  0  0  0  0  0  0  0  0  0  0  0
   -5.9692   16.0241  -10.7224 C   0  0  0  0  0  0  0  0  0  0  0  0
   -5.4193   14.5887  -10.8081 C   0  0  0  0  0  0  0  0  0  0  0  0
   -5.9298   13.7316   -9.7200 N   0  0  0  0  0  0  0  0  0  0  0  0
   -6.3074   12.4716  -10.0134 C   0  0  0  0  0  0  0  0  0  0  0  0
   -6.7304   11.7461   -9.1384 O   0  0  0  0  0  0  0  0  0  0  0  0
   -6.0408   14.1879   -8.3527 C   0  0  0  0  0  0  0  0  0  0  0  0
   -7.4428   14.8042   -8.1229 C   0  0  0  0  0  0  0  0  0  0  0  0
   -9.6291   20.0033   -4.3184 H   0  0  0  0  0  0  0  0  0  0  0  0
   -8.9133   16.7120   -8.4859 C   0  0  0  0  0  0  0  0  0  0  0  0
  -10.3665   21.0696   -4.2120 C   0  0  0  0  0  0  0  0  0  0  0  0
  -10.0287   21.2163   -5.6734 C   0  0  0  0  0  0  0  0  0  0  0  0
  -10.4164   22.1852   -6.2911 O   0  0  0  0  0  0  0  0  0  0  0  0
   -9.2958   20.2705   -6.2938 N   0  0  0  0  0  0  0  0  0  0  0  0
   -8.8209   19.0846   -5.5648 C   0  0  0  0  0  0  0  0  0  0  0  0
   -9.2108   17.8350   -6.3615 C   0  0  0  0  0  0  0  0  0  0  0  0
   -8.7114   17.9597   -7.7374 N   0  0  0  0  0  0  0  0  0  0  0  0
   -9.3346   19.0957   -8.4296 C   0  0  0  0  0  0  0  0  0  0  0  0
   -8.9550   20.3940   -7.7192 C   0  0  0  0  0  0  0  0  0  0  0  0
   -6.2041   11.9640  -11.4286 C   0  0  0  0  0  0  0  0  0  0  0  0
   -6.2382   10.4995  -11.4258 N   0  0  0  0  0  0  0  0  0  0  0  0
  -13.5784   18.9209  -16.3415 H   0  0  0  0  0  0  0  0  0  0  0  0
   -4.8537    9.6385  -11.7159 S   0  0  0  0  0  0  0  0  0  0  0  0
   -4.4793    8.8365  -10.1325 C   0  0  0  0  0  0  0  0  0  0  0  0
   -5.2380    8.6731  -12.6852 O   0  0  0  0  0  0  0  0  0  0  0  0
   -3.8806   10.6299  -12.0151 O   0  0  0  0  0  0  0  0  0  0  0  0
 13 14  1  0  0  0
 14 15  2  0  0  0
 14 16  1  0  0  0
 16 21  1  0  0  0
 16 17  1  0  0  0
 17 18  1  0  0  0
 18 19  1  0  0  0
 19 12  1  0  0  0
 19 20  1  0  0  0
  1 12  1  0  0  0
  1 10  1  0  0  0
  1  2  1  0  0  0
  1  3  1  0  0  0
  3  4  1  0  0  0
  4  5  1  0  0  0
  5  6  1  0  0  0
  6  7  1  0  0  0
  6  9  1  0  0  0
  7  8  2  0  0  0
  7 22  1  0  0  0
 22 23  1  0  0  0
 23 25  1  0  0  0
 25 26  1  0  0  0
 25 27  2  0  0  0
 25 28  2  0  0  0
  9 10  1  0  0  0
 20 21  1  0  0  0
  2 11  1  0  0  0
 23 24  1  0  0  0
M  END
> <minimizedAffinity>
-7.63952

$$$$
ZINC000096200542


 23 25  0  0  0  0  0  0  0  0999 V2000
   -5.8214   14.9398  -10.3873 C   0  0  0  0  0  0  0  0  0  0  0  0
   -5.1323   15.2862  -11.7271 C   0  0  0  0  0  0  0  0  0  0  0  0
   -5.8682   16.5751  -12.1721 C   0  0  0  0  0  0  0  0  0  0  0  0
   -6.0881   17.2993  -10.8941 N   0  0  0  0  0  0  0  0  0  0  0  0
   -6.4387   16.2624   -9.8962 C   0  0  0  0  0  0  0  0  0  0  0  0
   -8.4729   11.9203  -10.2588 H   0  0  0  0  0  0  0  0  0  0  0  0
   -7.1910   18.2588  -11.0389 C   0  0  0  0  0  0  0  0  0  0  0  0
   -7.0630   19.3513   -9.9729 C   0  0  0  0  0  0  0  0  0  0  0  0
   -8.1699   20.3883  -10.1806 C   0  0  0  0  0  0  0  0  0  0  0  0
   -8.0740   20.9274  -11.5006 O   0  0  0  0  0  0  0  0  0  0  0  0
   -8.2336   19.9592  -12.5394 C   0  0  0  0  0  0  0  0  0  0  0  0
   -7.1293   18.9049  -12.4263 C   0  0  0  0  0  0  0  0  0  0  0  0
   -6.8429   13.9620  -10.5932 O   0  0  0  0  0  0  0  0  0  0  0  0
   -6.7915   13.3285  -11.8731 C   0  0  0  0  0  0  0  0  0  0  0  0
   -9.0263   13.8401  -12.7130 C   0  0  0  0  0  0  0  0  0  0  0  0
   -8.1830   12.9299  -12.2925 C   0  0  0  0  0  0  0  0  0  0  0  0
   -7.9596   16.1272   -9.7973 C   0  0  0  0  0  0  0  0  0  0  0  0
   -8.3636   16.0474   -8.3477 C   0  0  0  0  0  0  0  0  0  0  0  0
   -8.0640   17.0841   -7.4775 C   0  0  0  0  0  0  0  0  0  0  0  0
   -8.4557   16.9674   -6.1524 C   0  0  0  0  0  0  0  0  0  0  0  0
   -9.1269   15.8299   -5.7462 C   0  0  0  0  0  0  0  0  0  0  0  0
   -9.3950   14.8630   -6.6021 N   0  0  0  0  0  0  0  0  0  0  0  0
   -9.0425   14.9421   -7.8703 C   0  0  0  0  0  0  0  0  0  0  0  0
 15 16  2  0  0  0
 16 14  1  0  0  0
 14 13  1  0  0  0
 13  1  1  0  0  0
  1  5  1  0  0  0
  1  2  1  0  0  0
  2  3  1  0  0  0
  3  4  1  0  0  0
  4  7  1  0  0  0
  4  5  1  0  0  0
  7 12  1  0  0  0
  7  8  1  0  0  0
  8  9  1  0  0  0
  9 10  1  0  0  0
 10 11  1  0  0  0
 11 12  1  0  0  0
  5 17  1  0  0  0
 17 18  1  0  0  0
 18 23  1  0  0  0
 18 19  2  0  0  0
 19 20  1  0  0  0
 20 21  2  0  0  0
 21 22  1  0  0  0
 22 23  2  0  0  0
  4  6  1  0  0  0
M  CHG 1   4   1
M  END
> <minimizedAffinity>
-6.98276

$$$$
ZINC000003153799


 21 22  0  0  0  0  0  0  0  0999 V2000
   -8.5043   17.1188   -8.8639 O   0  0  0  0  0  0  0  0  0  0  0  0
   -7.4111   17.7911   -9.2748 C   0  0  0  0  0  0  0  0  0  0  0  0
   -6.4983   17.9981   -8.4999 O   0  0  0  0  0  0  0  0  0  0  0  0
   -6.5070   17.6113  -11.5918 C   0  0  0  0  0  0  0  0  0  0  0  0
   -6.4314   18.0757  -12.8962 C   0  0  0  0  0  0  0  0  0  0  0  0
   -7.1520   19.1906  -13.2769 C   0  0  0  0  0  0  0  0  0  0  0  0
   -7.9547   19.8525  -12.3624 C   0  0  0  0  0  0  0  0  0  0  0  0
   -8.0421   19.4052  -11.0619 C   0  0  0  0  0  0  0  0  0  0  0  0
   -7.3225   18.2753  -10.6642 C   0  0  0  0  0  0  0  0  0  0  0  0
   -5.3646   15.6374  -12.2557 C   0  0  0  0  0  0  0  0  0  0  0  0
   -5.7998   16.5165  -11.2164 O   0  0  0  0  0  0  0  0  0  0  0  0
   -8.2836   15.9283   -8.0624 C   0  0  0  0  0  0  0  0  0  0  0  0
   -7.8245   14.8019   -8.9520 C   0  0  0  0  0  0  0  0  0  0  0  0
   -6.6478   14.1338   -8.6696 C   0  0  0  0  0  0  0  0  0  0  0  0
   -6.2267   13.1005   -9.4856 C   0  0  0  0  0  0  0  0  0  0  0  0
   -6.9825   12.7352  -10.5839 C   0  0  0  0  0  0  0  0  0  0  0  0
   -8.1599   13.4024  -10.8656 C   0  0  0  0  0  0  0  0  0  0  0  0
   -8.5830   14.4331  -10.0473 C   0  0  0  0  0  0  0  0  0  0  0  0
   -6.5313   11.6291  -11.4580 N   0  0  0  0  0  0  0  0  0  0  0  0
   -5.3410   11.4271  -11.6192 O   0  0  0  0  0  0  0  0  0  0  0  0
   -7.3503   10.9211  -12.0161 O   0  0  0  0  0  0  0  0  0  0  0  0
 10 11  1  0  0  0
 11  4  1  0  0  0
  4  9  2  0  0  0
  4  5  1  0  0  0
  5  6  2  0  0  0
  6  7  1  0  0  0
  7  8  2  0  0  0
  8  9  1  0  0  0
  9  2  1  0  0  0
  2  3  2  0  0  0
  2  1  1  0  0  0
  1 12  1  0  0  0
 12 13  1  0  0  0
 13 18  1  0  0  0
 13 14  2  0  0  0
 14 15  1  0  0  0
 15 16  2  0  0  0
 16 19  1  0  0  0
 16 17  1  0  0  0
 19 20  1  0  0  0
 19 21  2  0  0  0
 17 18  2  0  0  0
M  CHG 1  19   1
M  CHG 1  20  -1
M  END
> <minimizedAffinity>
-7.09230

$$$$
ZINC000067490798


 25 26  0  0  0  0  0  0  0  0999 V2000
   -8.1040   18.5675   -8.0811 C   0  0  0  0  0  0  0  0  0  0  0  0
   -8.7344   19.6229   -9.0140 C   0  0  0  0  0  0  0  0  0  0  0  0
   -7.7721   19.6301  -10.2310 C   0  0  0  0  0  0  0  0  0  0  0  0
   -8.4691   20.0585  -11.4511 N   0  0  0  0  0  0  0  0  0  0  0  0
   -7.3678   18.1372  -10.3166 C   0  0  0  0  0  0  0  0  0  0  0  0
   -7.2644   17.6919   -8.9116 N   0  0  0  0  0  0  0  0  0  0  0  0
   -6.5255   16.6555   -8.4684 C   0  0  0  0  0  0  0  0  0  0  0  0
   -6.5153   16.3792   -7.2876 O   0  0  0  0  0  0  0  0  0  0  0  0
   -9.4862   19.5807   -5.8208 H   0  0  0  0  0  0  0  0  0  0  0  0
   -9.4862   19.5807   -5.8208 H   0  0  0  0  0  0  0  0  0  0  0  0
   -9.4862   19.5807   -5.8208 H   0  0  0  0  0  0  0  0  0  0  0  0
   -9.4129   17.8910   -6.0941 N   0  0  0  0  0  0  0  0  0  0  0  0
   -9.1877   17.7584   -7.4164 C   0  0  0  0  0  0  0  0  0  0  0  0
   -9.8573   16.9878   -8.0712 O   0  0  0  0  0  0  0  0  0  0  0  0
   -9.4438   20.0495   -4.9444 C   0  0  0  0  0  0  0  0  0  0  0  0
   -8.6040   18.8219   -5.3032 C   0  0  0  0  0  0  0  0  0  0  0  0
  -10.4664   17.1044   -5.4479 C   0  0  0  0  0  0  0  0  0  0  0  0
   -9.8448   16.1931   -4.3877 C   0  0  0  0  0  0  0  0  0  0  0  0
   -5.7120   15.8401   -9.4402 C   0  0  0  0  0  0  0  0  0  0  0  0
   -6.6008   14.8250  -10.1114 C   0  0  0  0  0  0  0  0  0  0  0  0
   -6.9037   14.9394  -11.4593 C   0  0  0  0  0  0  0  0  0  0  0  0
   -7.7251   13.9818  -12.0348 C   0  0  0  0  0  0  0  0  0  0  0  0
   -8.2109   12.9525  -11.2512 C   0  0  0  0  0  0  0  0  0  0  0  0
   -7.9017   12.8751   -9.9714 N   0  0  0  0  0  0  0  0  0  0  0  0
   -7.1195   13.7646   -9.3922 C   0  0  0  0  0  0  0  0  0  0  0  0
 15 16  1  0  0  0
 16 12  1  0  0  0
 12 17  1  0  0  0
 12 13  1  0  0  0
 17 18  1  0  0  0
 13 14  2  0  0  0
 13  1  1  0  0  0
  1  6  1  0  0  0
  1  2  1  0  0  0
  2  3  1  0  0  0
  3  4  1  0  0  0
  3  5  1  0  0  0
  5  6  1  0  0  0
  6  7  1  0  0  0
  7  8  2  0  0  0
  7 19  1  0  0  0
 19 20  1  0  0  0
 20 25  1  0  0  0
 20 21  2  0  0  0
 21 22  1  0  0  0
 22 23  2  0  0  0
 23 24  1  0  0  0
 24 25  2  0  0  0
  4  9  1  0  0  0
  4 10  1  0  0  0
  4 11  1  0  0  0
M  CHG 1   4   1
M  END
> <minimizedAffinity>
-6.57880

$$$$
ZINC000062716332


 24 25  0  0  0  0  0  0  0  0999 V2000
   -7.2822   14.4394   -8.9812 N   0  0  0  0  0  0  0  0  0  0  0  0
   -7.8858   15.1283   -8.0050 C   0  0  0  0  0  0  0  0  0  0  0  0
   -7.9971   14.7390   -6.8594 O   0  0  0  0  0  0  0  0  0  0  0  0
   -8.3987   16.4230   -8.4985 C   0  0  0  0  0  0  0  0  0  0  0  0
   -9.0521   17.3527   -7.7832 C   0  0  0  0  0  0  0  0  0  0  0  0
   -8.0427   16.4966   -9.9688 C   0  0  0  0  0  0  0  0  0  0  0  0
   -7.3052   15.1762  -10.2456 C   0  0  0  0  0  0  0  0  0  0  0  0
   -9.5167   17.0413   -6.4191 C   0  0  0  0  0  0  0  0  0  0  0  0
   -8.8492   17.3822   -5.4530 O   0  0  0  0  0  0  0  0  0  0  0  0
  -10.5697   16.4419   -6.2538 O   0  0  0  0  0  0  0  0  0  0  0  0
   -3.1151   18.5320   -7.8167 H   0  0  0  0  0  0  0  0  0  0  0  0
   -5.2834   13.1099   -9.4492 C   0  0  0  0  0  0  0  0  0  0  0  0
   -6.6711   13.1196   -8.8050 C   0  0  0  0  0  0  0  0  0  0  0  0
   -7.1334   17.6689  -10.2331 C   0  0  0  0  0  0  0  0  0  0  0  0
   -6.3461   18.0290   -9.3841 O   0  0  0  0  0  0  0  0  0  0  0  0
   -7.2008   18.3766  -11.5217 C   0  0  0  0  0  0  0  0  0  0  0  0
   -6.5257   17.8714  -12.6371 C   0  0  0  0  0  0  0  0  0  0  0  0
   -6.5938   18.5404  -13.8412 C   0  0  0  0  0  0  0  0  0  0  0  0
   -7.3277   19.7089  -13.9471 C   0  0  0  0  0  0  0  0  0  0  0  0
   -7.9989   20.2153  -12.8473 C   0  0  0  0  0  0  0  0  0  0  0  0
   -7.9456   19.5547  -11.6385 C   0  0  0  0  0  0  0  0  0  0  0  0
   -8.6776   20.1076  -10.4427 C   0  0  0  0  0  0  0  0  0  0  0  0
   -8.1973   14.2167  -11.5002 S   0  0  0  0  0  0  0  0  0  0  0  0
   -6.8891   13.7588  -12.6703 C   0  0  0  0  0  0  0  0  0  0  0  0
 12 13  1  0  0  0
 13  1  1  0  0  0
  1  7  1  0  0  0
  1  2  1  0  0  0
  2  3  2  0  0  0
  2  4  1  0  0  0
  4  5  2  0  0  0
  4  6  1  0  0  0
  5  8  1  0  0  0
  8  9  2  0  0  0
  8 10  1  0  0  0
  6 14  1  0  0  0
  6  7  1  0  0  0
 14 15  2  0  0  0
 14 16  1  0  0  0
 16 21  1  0  0  0
 16 17  2  0  0  0
 17 18  1  0  0  0
 18 19  2  0  0  0
 19 20  1  0  0  0
 20 21  2  0  0  0
 21 22  1  0  0  0
  7 23  1  0  0  0
 23 24  1  0  0  0
 10 11  1  0  0  0
M  END
> <minimizedAffinity>
-7.53878

$$$$
CHEMBL3734938_8.37


 40 45  0  0  0  0  0  0  0  0999 V2000
  -10.2399   17.5820   -5.8489 C   0  0  0  0  0  0  0  0  0  0  0  0
   -9.7613   16.3791   -6.4040 C   0  0  0  0  0  0  0  0  0  0  0  0
   -8.7291   16.3667   -7.3548 C   0  0  0  0  0  0  0  0  0  0  0  0
   -8.2815   15.0355   -7.8802 C   0  0  0  0  0  0  0  0  0  0  0  0
   -8.7982   13.9936   -7.4928 O   0  0  0  0  0  0  0  0  0  0  0  0
   -7.2171   15.0685   -8.8647 C   0  0  0  0  0  0  0  0  0  0  0  0
   -6.6403   16.2536   -9.2729 C   0  0  0  0  0  0  0  0  0  0  0  0
   -5.6725   15.9565  -10.1974 N   0  0  0  0  0  0  0  0  0  0  0  0
   -5.6200   14.5968  -10.4072 C   0  0  0  0  0  0  0  0  0  0  0  0
   -4.8007   13.8507  -11.2644 C   0  0  0  0  0  0  0  0  0  0  0  0
   -4.9693   12.4588  -11.2769 C   0  0  0  0  0  0  0  0  0  0  0  0
   -5.9181   11.8456  -10.4558 C   0  0  0  0  0  0  0  0  0  0  0  0
   -6.7257   12.6102   -9.6031 C   0  0  0  0  0  0  0  0  0  0  0  0
   -6.5797   14.0119   -9.5772 C   0  0  0  0  0  0  0  0  0  0  0  0
   -6.9919   17.6405   -8.7991 C   0  0  0  0  0  0  0  0  0  0  0  0
   -7.4106   18.4930  -10.0174 C   0  0  0  0  0  0  0  0  0  0  0  0
   -5.7492   18.2651   -8.1255 C   0  0  0  0  0  0  0  0  0  0  0  0
   -8.1481   17.5795   -7.7786 C   0  0  0  0  0  0  0  0  0  0  0  0
   -8.6482   18.7754   -7.2191 C   0  0  0  0  0  0  0  0  0  0  0  0
   -9.6727   18.8068   -6.2532 C   0  0  0  0  0  0  0  0  0  0  0  0
  -13.0980   17.1394   -6.2550 H   0  0  0  0  0  0  0  0  0  0  0  0
  -10.1296   20.0195   -5.6990 N   0  0  0  0  0  0  0  0  0  0  0  0
   -9.8696   21.1750   -6.5952 C   0  0  0  0  0  0  0  0  0  0  0  0
  -10.5882   22.4294   -6.0627 C   0  0  0  0  0  0  0  0  0  0  0  0
  -10.2800   22.7067   -4.6519 N   0  0  0  0  0  0  0  0  0  0  0  0
  -10.4213   21.5467   -3.7591 C   0  0  0  0  0  0  0  0  0  0  0  0
   -9.7038   20.3016   -4.3097 C   0  0  0  0  0  0  0  0  0  0  0  0
  -10.2670   24.0368   -4.2310 C   0  0  0  0  0  0  0  0  0  0  0  0
  -10.2707   24.9551   -5.0556 O   0  0  0  0  0  0  0  0  0  0  0  0
  -10.1758   24.3272   -2.7078 C   0  0  0  0  0  0  0  0  0  0  0  0
   -8.7762   24.8438   -2.2998 C   0  0  0  0  0  0  0  0  0  0  0  0
   -8.5331   26.2108   -2.6605 O   0  0  0  0  0  0  0  0  0  0  0  0
   -9.5704   27.0776   -2.2010 C   0  0  0  0  0  0  0  0  0  0  0  0
  -10.9404   26.6211   -2.7142 C   0  0  0  0  0  0  0  0  0  0  0  0
  -11.2606   25.2539   -2.2600 N   0  0  0  0  0  0  0  0  0  0  0  0
  -14.2654   22.1523   -9.9784 H   0  0  0  0  0  0  0  0  0  0  0  0
  -10.8604   16.6170   -3.6094 C   0  0  0  0  0  0  0  0  0  0  0  0
  -11.3021   17.4925   -4.7727 C   0  0  0  0  0  0  0  0  0  0  0  0
   -4.1534   11.6605  -12.1506 C   0  0  0  0  0  0  0  0  0  0  0  0
   -3.4917   11.0157  -12.8436 N   0  0  0  0  0  0  0  0  0  0  0  0
 37 38  1  0  0  0
 38  1  1  0  0  0
  1 20  2  0  0  0
  1  2  1  0  0  0
  2  3  2  0  0  0
  3 18  1  0  0  0
  3  4  1  0  0  0
  4  6  1  0  0  0
  4  5  2  0  0  0
  6  7  2  0  0  0
  6 14  1  0  0  0
  7 15  1  0  0  0
  7  8  1  0  0  0
  8  9  1  0  0  0
  9 10  1  0  0  0
  9 14  2  0  0  0
 10 11  2  0  0  0
 11 12  1  0  0  0
 11 39  1  0  0  0
 12 13  2  0  0  0
 13 14  1  0  0  0
 39 40  3  0  0  0
 15 18  1  0  0  0
 15 17  1  0  0  0
 15 16  1  0  0  0
 18 19  2  0  0  0
 19 20  1  0  0  0
 20 22  1  0  0  0
 22 27  1  0  0  0
 22 23  1  0  0  0
 23 24  1  0  0  0
 24 25  1  0  0  0
 25 26  1  0  0  0
 25 28  1  0  0  0
 26 27  1  0  0  0
 28 30  1  0  0  0
 28 29  2  0  0  0
 30 35  1  0  0  0
 30 31  1  0  0  0
 31 32  1  0  0  0
 32 33  1  0  0  0
 33 34  1  0  0  0
 34 35  1  0  0  0
  8 21  1  0  0  0
 35 36  1  0  0  0
M  END
> <minimizedAffinity>
-8.31927

$$$$
ZINC000102806236


 27 28  0  0  0  0  0  0  0  0999 V2000
   -7.5342   14.1514   -8.7031 C   0  0  0  0  0  0  0  0  0  0  0  0
   -6.7220   15.3786   -8.2810 C   0  0  0  0  0  0  0  0  0  0  0  0
   -5.4147   15.3026   -8.8530 O   0  0  0  0  0  0  0  0  0  0  0  0
   -5.4029   15.2878  -10.2819 C   0  0  0  0  0  0  0  0  0  0  0  0
   -6.1621   14.0569  -10.7843 C   0  0  0  0  0  0  0  0  0  0  0  0
   -7.5908   14.0858  -10.2324 C   0  0  0  0  0  0  0  0  0  0  0  0
   -6.0490   16.5011  -10.7884 N   0  0  0  0  0  0  0  0  0  0  0  0
   -6.6665   17.3873   -9.8963 N   0  0  0  0  0  0  0  0  0  0  0  0
   -7.2413   18.4667  -10.3467 C   0  0  0  0  0  0  0  0  0  0  0  0
   -7.2369   18.7356  -11.7403 C   0  0  0  0  0  0  0  0  0  0  0  0
   -7.9880   20.1502  -12.3447 S   0  0  0  0  0  0  0  0  0  0  0  0
   -6.6387   17.8732  -12.5862 N   0  0  0  0  0  0  0  0  0  0  0  0
   -6.0426   16.7632  -12.1094 C   0  0  0  0  0  0  0  0  0  0  0  0
   -5.5042   15.9889  -12.8769 O   0  0  0  0  0  0  0  0  0  0  0  0
   -4.0511   17.0074   -5.5487 H   0  0  0  0  0  0  0  0  0  0  0  0
   -8.8816   14.2550   -8.1717 O   0  0  0  0  0  0  0  0  0  0  0  0
   -9.5598   16.5747   -7.6669 C   0  0  0  0  0  0  0  0  0  0  0  0
   -9.1005   15.2023   -7.2463 C   0  0  0  0  0  0  0  0  0  0  0  0
   -8.9293   14.9548   -6.0761 O   0  0  0  0  0  0  0  0  0  0  0  0
   -5.4902   12.8530  -10.3288 O   0  0  0  0  0  0  0  0  0  0  0  0
   -5.0185   12.0239  -11.2731 C   0  0  0  0  0  0  0  0  0  0  0  0
   -5.1881   10.5343  -11.1211 C   0  0  0  0  0  0  0  0  0  0  0  0
   -4.4579   12.4720  -12.2452 O   0  0  0  0  0  0  0  0  0  0  0  0
   -8.2953   12.8851  -10.6450 O   0  0  0  0  0  0  0  0  0  0  0  0
   -8.5335   12.7393  -11.9580 C   0  0  0  0  0  0  0  0  0  0  0  0
   -9.1712   13.8607  -12.7371 C   0  0  0  0  0  0  0  0  0  0  0  0
   -8.2367   11.7091  -12.5151 O   0  0  0  0  0  0  0  0  0  0  0  0
 17 18  1  0  0  0
 18 19  2  0  0  0
 18 16  1  0  0  0
 16  1  1  0  0  0
  1  6  1  0  0  0
  1  2  1  0  0  0
  2  3  1  0  0  0
  3  4  1  0  0  0
  4  7  1  0  0  0
  4  5  1  0  0  0
  7 13  1  0  0  0
  7  8  1  0  0  0
  8  9  2  0  0  0
  9 10  1  0  0  0
 10 11  2  0  0  0
 10 12  1  0  0  0
 12 13  1  0  0  0
 13 14  2  0  0  0
  5 20  1  0  0  0
  5  6  1  0  0  0
 20 21  1  0  0  0
 21 22  1  0  0  0
 21 23  2  0  0  0
  6 24  1  0  0  0
 24 25  1  0  0  0
 25 26  1  0  0  0
 25 27  2  0  0  0
 12 15  1  0  0  0
M  END
> <minimizedAffinity>
-7.48173

$$$$
ZINC000230039694


 32 35  0  0  0  0  0  0  0  0999 V2000
   -9.2484   16.7539   -6.4771 N   0  0  0  0  0  0  0  0  0  0  0  0
   -8.3956   17.7652   -6.8205 C   0  0  0  0  0  0  0  0  0  0  0  0
   -8.5698   18.9550   -6.6677 O   0  0  0  0  0  0  0  0  0  0  0  0
   -7.1944   17.0915   -7.4274 C   0  0  0  0  0  0  0  0  0  0  0  0
   -6.5388   17.6985   -8.6675 C   0  0  0  0  0  0  0  0  0  0  0  0
   -6.2748   16.5432   -9.5788 N   0  0  0  0  0  0  0  0  0  0  0  0
   -6.9661   15.3459   -9.0037 C   0  0  0  0  0  0  0  0  0  0  0  0
   -5.9675   14.4867   -8.2745 C   0  0  0  0  0  0  0  0  0  0  0  0
   -5.3167   14.8022   -7.3009 O   0  0  0  0  0  0  0  0  0  0  0  0
   -5.9353   13.3006   -8.9116 N   0  0  0  0  0  0  0  0  0  0  0  0
   -6.8094   13.2641  -10.0000 C   0  0  0  0  0  0  0  0  0  0  0  0
   -7.0810   12.2505  -10.9160 C   0  0  0  0  0  0  0  0  0  0  0  0
   -8.0022   12.4537  -11.9230 C   0  0  0  0  0  0  0  0  0  0  0  0
   -8.6623   13.6633  -12.0311 C   0  0  0  0  0  0  0  0  0  0  0  0
   -8.3980   14.6758  -11.1257 C   0  0  0  0  0  0  0  0  0  0  0  0
   -7.4793   14.4775  -10.1201 C   0  0  0  0  0  0  0  0  0  0  0  0
   -8.0022   15.9266   -8.1329 C   0  0  0  0  0  0  0  0  0  0  0  0
   -8.9337   15.5652   -7.0879 C   0  0  0  0  0  0  0  0  0  0  0  0
   -9.3549   14.4602   -6.8210 O   0  0  0  0  0  0  0  0  0  0  0  0
   -9.9131   16.6403   -4.1408 H   0  0  0  0  0  0  0  0  0  0  0  0
   -9.9131   16.6403   -4.1408 H   0  0  0  0  0  0  0  0  0  0  0  0
   -9.9131   16.6403   -4.1408 H   0  0  0  0  0  0  0  0  0  0  0  0
  -10.3729   16.9189   -5.5526 C   0  0  0  0  0  0  0  0  0  0  0  0
  -10.0342   15.6551   -3.4913 C   0  0  0  0  0  0  0  0  0  0  0  0
   -9.8810   16.7860   -4.1345 C   0  0  0  0  0  0  0  0  0  0  0  0
   -7.4877   18.6965   -9.3344 C   0  0  0  0  0  0  0  0  0  0  0  0
   -7.4084   18.5382  -10.8541 C   0  0  0  0  0  0  0  0  0  0  0  0
   -7.9918   19.7592  -11.5174 C   0  0  0  0  0  0  0  0  0  0  0  0
   -7.8986   19.9097  -12.8535 N   0  0  0  0  0  0  0  0  0  0  0  0
   -8.5453   20.6064  -10.8489 O   0  0  0  0  0  0  0  0  0  0  0  0
   -7.6969   19.2861   -3.2928 H   0  0  0  0  0  0  0  0  0  0  0  0
   -7.6969   19.2861   -3.2928 H   0  0  0  0  0  0  0  0  0  0  0  0
 24 25  2  0  0  0
 25 23  1  0  0  0
 23  1  1  0  0  0
  1 18  1  0  0  0
  1  2  1  0  0  0
  2  3  2  0  0  0
  2  4  1  0  0  0
  4 17  1  0  0  0
  4  5  1  0  0  0
  5 26  1  0  0  0
  5  6  1  0  0  0
 26 27  1  0  0  0
 27 28  1  0  0  0
 28 29  1  0  0  0
 28 30  2  0  0  0
  7  6  1  0  0  0
  7 16  1  0  0  0
  7  8  1  0  0  0
  7 17  1  0  0  0
  8  9  2  0  0  0
  8 10  1  0  0  0
 10 11  1  0  0  0
 11 16  2  0  0  0
 11 12  1  0  0  0
 12 13  2  0  0  0
 13 14  1  0  0  0
 14 15  2  0  0  0
 15 16  1  0  0  0
 17 18  1  0  0  0
 18 19  2  0  0  0
 29 31  1  0  0  0
 29 32  1  0  0  0
  6 20  1  0  0  0
  6 21  1  0  0  0
 10 22  1  0  0  0
M  CHG 1   6   1
M  END
> <minimizedAffinity>
-8.25349

$$$$
ZINC000008665855


 35 36  0  0  0  0  0  0  0  0999 V2000
   -6.1823   16.5973  -11.2359 N   0  0  0  0  0  0  0  0  0  0  0  0
  -12.0769   15.3341   -5.8993 H   0  0  0  0  0  0  0  0  0  0  0  0
   -9.0732   19.4263   -8.6798 C   0  0  0  0  0  0  0  0  0  0  0  0
   -8.2860   18.9507   -9.7035 C   0  0  0  0  0  0  0  0  0  0  0  0
   -7.6029   17.7675   -9.7355 N   0  0  0  0  0  0  0  0  0  0  0  0
   -6.9692   17.6675  -10.8737 C   0  0  0  0  0  0  0  0  0  0  0  0
   -7.1911   18.7691  -11.6602 N   0  0  0  0  0  0  0  0  0  0  0  0
   -8.0115   19.6103  -10.9932 C   0  0  0  0  0  0  0  0  0  0  0  0
   -8.4291   20.6888  -11.3734 O   0  0  0  0  0  0  0  0  0  0  0  0
   -9.3783   16.6237   -3.8463 H   0  0  0  0  0  0  0  0  0  0  0  0
   -9.2917   17.3087   -5.0153 C   0  0  0  0  0  0  0  0  0  0  0  0
   -9.7020   16.6964   -6.1943 C   0  0  0  0  0  0  0  0  0  0  0  0
   -9.6331   17.3788   -7.3874 C   0  0  0  0  0  0  0  0  0  0  0  0
   -9.1487   18.6938   -7.4124 C   0  0  0  0  0  0  0  0  0  0  0  0
   -8.7371   19.3059   -6.2205 C   0  0  0  0  0  0  0  0  0  0  0  0
   -8.8153   18.6149   -5.0329 C   0  0  0  0  0  0  0  0  0  0  0  0
   -9.2411   15.2081   -3.9058 C   0  0  0  0  0  0  0  0  0  0  0  0
   -9.3620   16.6305   -3.8415 O   0  0  0  0  0  0  0  0  0  0  0  0
   -6.4658   15.3190  -10.7377 N   0  0  0  0  0  0  0  0  0  0  0  0
   -7.3719   14.6031  -11.2903 C   0  0  0  0  0  0  0  0  0  0  0  0
   -7.6769   13.2280  -10.7545 C   0  0  0  0  0  0  0  0  0  0  0  0
   -7.1459   13.1029   -9.4337 O   0  0  0  0  0  0  0  0  0  0  0  0
   -3.7350   14.2646   -3.8950 H   0  0  0  0  0  0  0  0  0  0  0  0
   -7.0400   12.1740  -11.6622 C   0  0  0  0  0  0  0  0  0  0  0  0
   -7.8344   10.9862  -11.6433 O   0  0  0  0  0  0  0  0  0  0  0  0
   -4.8136   20.5743  -11.9787 H   0  0  0  0  0  0  0  0  0  0  0  0
   -5.6307   11.8530  -11.1604 C   0  0  0  0  0  0  0  0  0  0  0  0
   -4.6717   12.2728  -12.1331 O   0  0  0  0  0  0  0  0  0  0  0  0
   -3.4868   16.1932  -18.5065 H   0  0  0  0  0  0  0  0  0  0  0  0
   -5.5010   10.3455  -10.9338 C   0  0  0  0  0  0  0  0  0  0  0  0
   -5.1797   10.0956   -9.5641 O   0  0  0  0  0  0  0  0  0  0  0  0
  -10.5092   15.7629  -17.3500 H   0  0  0  0  0  0  0  0  0  0  0  0
   -4.3910    9.7891  -11.8278 C   0  0  0  0  0  0  0  0  0  0  0  0
   -4.9160    8.7372  -12.6402 O   0  0  0  0  0  0  0  0  0  0  0  0
   -4.8932   19.8938  -12.9480 H   0  0  0  0  0  0  0  0  0  0  0  0
 17 18  1  0  0  0
 18 11  1  0  0  0
 11 16  2  0  0  0
 11 12  1  0  0  0
 12 13  2  0  0  0
 13 14  1  0  0  0
 14  3  1  0  0  0
 14 15  2  0  0  0
  3  4  2  0  0  0
  4  8  1  0  0  0
  4  5  1  0  0  0
  5  6  2  0  0  0
  6  1  1  0  0  0
  6  7  1  0  0  0
  1 19  1  0  0  0
 19 20  2  0  0  0
 20 21  1  0  0  0
 21 22  1  0  0  0
 21 24  1  0  0  0
 24 25  1  0  0  0
 24 27  1  0  0  0
 27 28  1  0  0  0
 27 30  1  0  0  0
 30 31  1  0  0  0
 30 33  1  0  0  0
 33 34  1  0  0  0
  7  8  1  0  0  0
  8  9  2  0  0  0
 15 16  1  0  0  0
  1  2  1  0  0  0
 22 23  1  0  0  0
 25 26  1  0  0  0
 28 29  1  0  0  0
 31 32  1  0  0  0
 34 35  1  0  0  0
  7 10  1  0  0  0
M  END
> <minimizedAffinity>
-7.91117

$$$$
ZINC000003958027


 22 23  0  0  0  0  0  0  0  0999 V2000
   -6.9129   19.1135  -13.9677 C   0  0  0  0  0  0  0  0  0  0  0  0
   -7.0455   18.7873  -12.5474 N   0  0  0  0  0  0  0  0  0  0  0  0
   -6.4129   17.7031  -12.0415 C   0  0  0  0  0  0  0  0  0  0  0  0
   -5.6056   17.1003  -12.7226 O   0  0  0  0  0  0  0  0  0  0  0  0
   -6.7517   17.2827  -10.6821 C   0  0  0  0  0  0  0  0  0  0  0  0
   -7.6344   18.0733   -9.9231 C   0  0  0  0  0  0  0  0  0  0  0  0
   -8.0954   17.5697   -8.7572 N   0  0  0  0  0  0  0  0  0  0  0  0
   -9.3362   18.0178   -8.1202 C   0  0  0  0  0  0  0  0  0  0  0  0
   -7.4466   16.5679   -8.1204 C   0  0  0  0  0  0  0  0  0  0  0  0
   -7.7298   16.3301   -6.9593 O   0  0  0  0  0  0  0  0  0  0  0  0
   -6.4972   15.7854   -8.7715 C   0  0  0  0  0  0  0  0  0  0  0  0
   -6.1541   16.0949  -10.0801 C   0  0  0  0  0  0  0  0  0  0  0  0
   -5.2744   15.2883  -10.7736 N   0  0  0  0  0  0  0  0  0  0  0  0
   -7.9124   19.3153  -10.4182 N   0  0  0  0  0  0  0  0  0  0  0  0
   -8.3301   20.4497   -9.5935 C   0  0  0  0  0  0  0  0  0  0  0  0
   -7.7749   19.5670  -11.7406 C   0  0  0  0  0  0  0  0  0  0  0  0
   -8.3396   20.5376  -12.2023 O   0  0  0  0  0  0  0  0  0  0  0  0
   -5.8399   19.0706  -12.2006 H   0  0  0  0  0  0  0  0  0  0  0  0
   -5.8399   19.0706  -12.2006 H   0  0  0  0  0  0  0  0  0  0  0  0
   -5.8412   14.6573   -8.0740 N   0  0  0  0  0  0  0  0  0  0  0  0
   -6.3474   13.5497   -8.0970 O   0  0  0  0  0  0  0  0  0  0  0  0
   -4.7949   14.8363   -7.4766 O   0  0  0  0  0  0  0  0  0  0  0  0
  1  2  1  0  0  0
  2 16  1  0  0  0
  2  3  1  0  0  0
  3  4  2  0  0  0
  3  5  1  0  0  0
  5 12  1  0  0  0
  5  6  2  0  0  0
  6  7  1  0  0  0
  6 14  1  0  0  0
  7  8  1  0  0  0
  7  9  1  0  0  0
  9 10  2  0  0  0
  9 11  1  0  0  0
 11 20  1  0  0  0
 11 12  2  0  0  0
 20 21  1  0  0  0
 20 22  2  0  0  0
 12 13  1  0  0  0
 14 15  1  0  0  0
 14 16  1  0  0  0
 16 17  2  0  0  0
 13 18  1  0  0  0
 13 19  1  0  0  0
M  CHG 1  20   1
M  CHG 1  21  -1
M  END
> <minimizedAffinity>
-7.50216

$$$$
ZINC000077656698


 26 27  0  0  0  0  0  0  0  0999 V2000
   -6.9619   16.1274   -7.6560 N   0  0  0  0  0  0  0  0  0  0  0  0
   -8.2590   16.4458   -7.0455 H   0  0  0  0  0  0  0  0  0  0  0  0
   -8.2590   16.4458   -7.0455 H   0  0  0  0  0  0  0  0  0  0  0  0
   -9.3788   16.1758   -8.0476 C   0  0  0  0  0  0  0  0  0  0  0  0
   -8.2580   16.4437   -7.0411 C   0  0  0  0  0  0  0  0  0  0  0  0
   -8.2820   17.9176   -6.6314 C   0  0  0  0  0  0  0  0  0  0  0  0
   -9.1236   18.7115   -7.6324 C   0  0  0  0  0  0  0  0  0  0  0  0
   -9.1476   20.1855   -7.2226 C   0  0  0  0  0  0  0  0  0  0  0  0
   -9.7581   20.3167   -5.8259 C   0  0  0  0  0  0  0  0  0  0  0  0
   -8.9165   19.5227   -4.8248 C   0  0  0  0  0  0  0  0  0  0  0  0
   -8.8925   18.0488   -5.2346 C   0  0  0  0  0  0  0  0  0  0  0  0
   -8.4631   15.5671   -5.8040 C   0  0  0  0  0  0  0  0  0  0  0  0
   -9.5486   14.6663   -6.0332 O   0  0  0  0  0  0  0  0  0  0  0  0
   -8.2557   16.4478   -7.0427 H   0  0  0  0  0  0  0  0  0  0  0  0
   -7.0818   14.8933   -8.4439 C   0  0  0  0  0  0  0  0  0  0  0  0
   -6.3257   15.0483   -9.7383 C   0  0  0  0  0  0  0  0  0  0  0  0
   -5.2026   14.6023   -9.8415 O   0  0  0  0  0  0  0  0  0  0  0  0
   -6.8976   15.6823  -10.7810 N   0  0  0  0  0  0  0  0  0  0  0  0
   -6.9831   14.0263   -6.2101 H   0  0  0  0  0  0  0  0  0  0  0  0
   -6.1625   15.8329  -12.0393 C   0  0  0  0  0  0  0  0  0  0  0  0
   -7.0006   16.6467  -13.0468 C   0  0  0  0  0  0  0  0  0  0  0  0
   -6.4845   18.0981  -12.8855 C   0  0  0  0  0  0  0  0  0  0  0  0
   -4.9634   17.8982  -12.6721 C   0  0  0  0  0  0  0  0  0  0  0  0
   -4.8672   16.6286  -11.8011 C   0  0  0  0  0  0  0  0  0  0  0  0
   -5.8452   14.5089  -12.5990 C   0  0  0  0  0  0  0  0  0  0  0  0
   -5.6004   13.4872  -13.0310 N   0  0  0  0  0  0  0  0  0  0  0  0
  5  4  1  0  0  0
  5 12  1  0  0  0
  5  1  1  0  0  0
  5  6  1  0  0  0
 12 13  1  0  0  0
  1 15  1  0  0  0
 15 16  1  0  0  0
 16 17  2  0  0  0
 16 18  1  0  0  0
 18 20  1  0  0  0
 20 24  1  0  0  0
 20 25  1  0  0  0
 20 21  1  0  0  0
 25 26  3  0  0  0
 21 22  1  0  0  0
 22 23  1  0  0  0
 23 24  1  0  0  0
  6 11  1  0  0  0
  6  7  1  0  0  0
  7  8  1  0  0  0
  8  9  1  0  0  0
  9 10  1  0  0  0
 10 11  1  0  0  0
 13 14  1  0  0  0
  1  2  1  0  0  0
  1  3  1  0  0  0
 18 19  1  0  0  0
M  CHG 1   1   1
M  END
> <minimizedAffinity>
-7.45241

$$$$
ZINC000012157733


 31 34  0  0  0  0  0  0  0  0999 V2000
   -5.7816   16.4164  -10.9717 C   0  0  0  0  0  0  0  0  0  0  0  0
   -5.1899   16.4420  -12.3837 C   0  0  0  0  0  0  0  0  0  0  0  0
   -5.0669   17.8951  -12.8507 C   0  0  0  0  0  0  0  0  0  0  0  0
   -6.4449   18.5592  -12.8042 C   0  0  0  0  0  0  0  0  0  0  0  0
   -6.9675   18.5096  -11.4329 N   0  0  0  0  0  0  0  0  0  0  0  0
   -7.1387   17.1236  -10.9787 C   0  0  0  0  0  0  0  0  0  0  0  0
   -5.9639   14.9659  -10.5204 C   0  0  0  0  0  0  0  0  0  0  0  0
   -6.1106   14.9209   -9.0213 C   0  0  0  0  0  0  0  0  0  0  0  0
   -5.1297   14.8809   -8.1840 N   0  0  0  0  0  0  0  0  0  0  0  0
   -5.4346   14.8458   -6.9025 C   0  0  0  0  0  0  0  0  0  0  0  0
   -6.7458   14.8568   -6.6442 C   0  0  0  0  0  0  0  0  0  0  0  0
   -7.6010   14.9230   -8.1833 S   0  0  0  0  0  0  0  0  0  0  0  0
   -7.0789   13.2862  -11.8888 C   0  0  0  0  0  0  0  0  0  0  0  0
   -6.0066   12.7399  -12.0399 O   0  0  0  0  0  0  0  0  0  0  0  0
   -7.1652   14.4072  -11.1456 N   0  0  0  0  0  0  0  0  0  0  0  0
   -8.3161   12.7082  -12.5354 H   0  0  0  0  0  0  0  0  0  0  0  0
   -9.3255   13.8316  -12.7857 C   0  0  0  0  0  0  0  0  0  0  0  0
   -8.3146   12.7115  -12.5320 C   0  0  0  0  0  0  0  0  0  0  0  0
   -8.2260   19.2592  -11.3217 C   0  0  0  0  0  0  0  0  0  0  0  0
   -8.5222   19.5310   -9.8693 C   0  0  0  0  0  0  0  0  0  0  0  0
   -8.6726   18.4790   -8.9756 C   0  0  0  0  0  0  0  0  0  0  0  0
   -8.9434   18.7718   -7.6509 C   0  0  0  0  0  0  0  0  0  0  0  0
   -9.0552   20.1024   -7.2614 C   0  0  0  0  0  0  0  0  0  0  0  0
   -8.9047   21.0779   -8.1442 N   0  0  0  0  0  0  0  0  0  0  0  0
   -8.6412   20.8285   -9.4127 C   0  0  0  0  0  0  0  0  0  0  0  0
   -9.3271   20.4109   -5.9335 N   0  0  0  0  0  0  0  0  0  0  0  0
   -9.8835   19.2486   -5.2258 C   0  0  0  0  0  0  0  0  0  0  0  0
  -10.1116   19.6136   -3.7566 C   0  0  0  0  0  0  0  0  0  0  0  0
  -10.9702   20.7549   -3.6819 O   0  0  0  0  0  0  0  0  0  0  0  0
  -10.4588   21.9054   -4.3601 C   0  0  0  0  0  0  0  0  0  0  0  0
  -10.2342   21.5636   -5.8355 C   0  0  0  0  0  0  0  0  0  0  0  0
 17 18  1  0  0  0
 18 13  1  0  0  0
 13 14  2  0  0  0
 13 15  1  0  0  0
 15  7  1  0  0  0
  7  8  1  0  0  0
  7  1  1  0  0  0
  8 12  1  0  0  0
  8  9  2  0  0  0
  9 10  1  0  0  0
 10 11  2  0  0  0
 11 12  1  0  0  0
  1  6  1  0  0  0
  1  2  1  0  0  0
  2  3  1  0  0  0
  3  4  1  0  0  0
  4  5  1  0  0  0
  5 19  1  0  0  0
  5  6  1  0  0  0
 19 20  1  0  0  0
 20 25  1  0  0  0
 20 21  2  0  0  0
 21 22  1  0  0  0
 22 23  2  0  0  0
 23 26  1  0  0  0
 23 24  1  0  0  0
 26 31  1  0  0  0
 26 27  1  0  0  0
 27 28  1  0  0  0
 28 29  1  0  0  0
 29 30  1  0  0  0
 30 31  1  0  0  0
 24 25  2  0  0  0
 15 16  1  0  0  0
M  END
> <minimizedAffinity>
-8.30913

$$$$
ZINC000022778648


 32 34  0  0  0  0  0  0  0  0999 V2000
   -8.2503   17.3373   -9.0470 C   0  0  0  0  0  0  0  0  0  0  0  0
   -8.2727   18.4483   -8.0923 N   0  0  0  0  0  0  0  0  0  0  0  0
   -9.1569   18.4450   -7.0751 C   0  0  0  0  0  0  0  0  0  0  0  0
   -9.9344   17.5218   -6.9500 O   0  0  0  0  0  0  0  0  0  0  0  0
   -3.0072   18.3536  -10.2540 H   0  0  0  0  0  0  0  0  0  0  0  0
   -9.1797   19.5784   -6.1012 C   0  0  0  0  0  0  0  0  0  0  0  0
   -8.8341   19.3979   -4.9520 O   0  0  0  0  0  0  0  0  0  0  0  0
   -9.5841   20.8008   -6.4992 N   0  0  0  0  0  0  0  0  0  0  0  0
   -9.2084   12.4789   -3.5629 H   0  0  0  0  0  0  0  0  0  0  0  0
   -9.6066   21.9118   -5.5446 C   0  0  0  0  0  0  0  0  0  0  0  0
  -10.8663   22.7509   -5.7681 C   0  0  0  0  0  0  0  0  0  0  0  0
  -10.6723   24.0884   -5.1924 N   0  0  0  0  0  0  0  0  0  0  0  0
   -9.8768   24.9382   -6.0904 C   0  0  0  0  0  0  0  0  0  0  0  0
   -9.7497   26.3369   -5.4808 C   0  0  0  0  0  0  0  0  0  0  0  0
   -9.1687   26.2328   -4.1782 O   0  0  0  0  0  0  0  0  0  0  0  0
   -9.9180   25.4128   -3.2774 C   0  0  0  0  0  0  0  0  0  0  0  0
  -10.0468   24.0047   -3.8646 C   0  0  0  0  0  0  0  0  0  0  0  0
   -6.8822   17.2789   -9.7296 C   0  0  0  0  0  0  0  0  0  0  0  0
   -5.9777   11.7111   -9.4394 C   0  0  0  0  0  0  0  0  0  0  0  0
   -6.3686   13.1138   -9.2457 N   0  0  0  0  0  0  0  0  0  0  0  0
   -7.2239   13.5790  -10.3465 C   0  0  0  0  0  0  0  0  0  0  0  0
   -7.6733   15.0153  -10.0680 C   0  0  0  0  0  0  0  0  0  0  0  0
   -6.4912   15.8763   -9.9233 N   0  0  0  0  0  0  0  0  0  0  0  0
   -5.6360   15.4111   -8.8224 C   0  0  0  0  0  0  0  0  0  0  0  0
   -5.1865   13.9749   -9.1010 C   0  0  0  0  0  0  0  0  0  0  0  0
   -6.9584   17.9687  -11.0672 C   0  0  0  0  0  0  0  0  0  0  0  0
   -7.7674   19.0782  -11.2271 C   0  0  0  0  0  0  0  0  0  0  0  0
   -7.8381   19.7116  -12.4534 C   0  0  0  0  0  0  0  0  0  0  0  0
   -7.0981   19.2346  -13.5220 C   0  0  0  0  0  0  0  0  0  0  0  0
   -7.1661   19.8532  -14.7212 F   0  0  0  0  0  0  0  0  0  0  0  0
   -6.2878   18.1236  -13.3606 C   0  0  0  0  0  0  0  0  0  0  0  0
   -6.2150   17.4947  -12.1320 C   0  0  0  0  0  0  0  0  0  0  0  0
 19 20  1  0  0  0
 20 25  1  0  0  0
 20 21  1  0  0  0
 21 22  1  0  0  0
 22 23  1  0  0  0
 23 18  1  0  0  0
 23 24  1  0  0  0
 18  1  1  0  0  0
 18 26  1  0  0  0
  1  2  1  0  0  0
  2  3  1  0  0  0
  3  4  2  0  0  0
  3  6  1  0  0  0
  6  7  2  0  0  0
  6  8  1  0  0  0
  8 10  1  0  0  0
 10 11  1  0  0  0
 11 12  1  0  0  0
 12 17  1  0  0  0
 12 13  1  0  0  0
 13 14  1  0  0  0
 14 15  1  0  0  0
 15 16  1  0  0  0
 16 17  1  0  0  0
 26 32  1  0  0  0
 26 27  2  0  0  0
 27 28  1  0  0  0
 28 29  2  0  0  0
 29 30  1  0  0  0
 29 31  1  0  0  0
 31 32  2  0  0  0
 24 25  1  0  0  0
  2  5  1  0  0  0
  8  9  1  0  0  0
M  END
> <minimizedAffinity>
-8.16486

$$$$
ZINC000004899864


 30 30  0  0  0  0  0  0  0  0999 V2000
   -7.2014   18.0542  -10.2385 C   0  0  0  0  0  0  0  0  0  0  0  0
   -7.7507   19.2074  -10.8011 C   0  0  0  0  0  0  0  0  0  0  0  0
   -8.5887   20.0087  -10.0522 C   0  0  0  0  0  0  0  0  0  0  0  0
   -8.8870   19.6734   -8.7451 C   0  0  0  0  0  0  0  0  0  0  0  0
   -8.3452   18.5272   -8.1756 C   0  0  0  0  0  0  0  0  0  0  0  0
   -7.5068   17.7131   -8.9208 C   0  0  0  0  0  0  0  0  0  0  0  0
   -6.2702   15.8647  -10.8168 N   0  0  0  0  0  0  0  0  0  0  0  0
   -6.3037   17.1937  -11.0385 C   0  0  0  0  0  0  0  0  0  0  0  0
   -5.5959   17.6849  -11.8959 O   0  0  0  0  0  0  0  0  0  0  0  0
   -3.9567   12.5066   -9.2052 H   0  0  0  0  0  0  0  0  0  0  0  0
   -5.3808   15.0121  -11.6095 C   0  0  0  0  0  0  0  0  0  0  0  0
   -6.1900   14.2529  -12.6293 C   0  0  0  0  0  0  0  0  0  0  0  0
   -7.4077   14.3123  -12.6082 O   0  0  0  0  0  0  0  0  0  0  0  0
   -5.6271   13.5794  -13.4754 O   0  0  0  0  0  0  0  0  0  0  0  0
   -3.2105   13.3556   -9.0342 H   0  0  0  0  0  0  0  0  0  0  0  0
   -4.6664   14.0229  -10.6864 C   0  0  0  0  0  0  0  0  0  0  0  0
   -5.4292   13.9168   -9.3644 C   0  0  0  0  0  0  0  0  0  0  0  0
   -5.5945   11.3366  -10.5380 C   0  0  0  0  0  0  0  0  0  0  0  0
   -6.4676   12.4296   -9.3831 S   0  0  0  0  0  0  0  0  0  0  0  0
   -8.6508   18.1919   -6.8517 N   0  0  0  0  0  0  0  0  0  0  0  0
   -9.6175   17.2896   -6.5910 C   0  0  0  0  0  0  0  0  0  0  0  0
  -10.1563   16.6977   -7.5023 O   0  0  0  0  0  0  0  0  0  0  0  0
  -10.1331   22.2228  -15.9278 H   0  0  0  0  0  0  0  0  0  0  0  0
  -10.0287   17.0160   -5.1672 C   0  0  0  0  0  0  0  0  0  0  0  0
  -11.4907   16.8906   -5.0954 N   0  0  0  0  0  0  0  0  0  0  0  0
   -8.8441   23.1062  -15.3857 H   0  0  0  0  0  0  0  0  0  0  0  0
   -8.8441   23.1062  -15.3857 H   0  0  0  0  0  0  0  0  0  0  0  0
   -9.3812   15.7143   -4.6905 C   0  0  0  0  0  0  0  0  0  0  0  0
   -9.3595   15.6785   -2.8770 S   0  0  0  0  0  0  0  0  0  0  0  0
  -11.4811   21.5153  -16.1471 H   0  0  0  0  0  0  0  0  0  0  0  0
 18 19  1  0  0  0
 19 17  1  0  0  0
 17 16  1  0  0  0
 16 11  1  0  0  0
 11  7  1  0  0  0
 11 12  1  0  0  0
  7  8  1  0  0  0
  8  9  2  0  0  0
  8  1  1  0  0  0
  1  6  2  0  0  0
  1  2  1  0  0  0
  2  3  2  0  0  0
  3  4  1  0  0  0
  4  5  2  0  0  0
  5 20  1  0  0  0
  5  6  1  0  0  0
 20 21  1  0  0  0
 21 22  2  0  0  0
 21 24  1  0  0  0
 24 25  1  0  0  0
 24 28  1  0  0  0
 28 29  1  0  0  0
 12 13  2  0  0  0
 12 14  1  0  0  0
  7 10  1  0  0  0
 20 23  1  0  0  0
 25 26  1  0  0  0
 25 27  1  0  0  0
 29 30  1  0  0  0
 14 15  1  0  0  0
M  END
> <minimizedAffinity>
-7.19457

$$$$
ZINC000257329113


 25 26  0  0  0  0  0  0  0  0999 V2000
   -9.1725   16.1679   -6.7929 C   0  0  0  0  0  0  0  0  0  0  0  0
  -10.1283   16.4817   -7.4704 O   0  0  0  0  0  0  0  0  0  0  0  0
   -8.0951   15.5996   -7.3698 N   0  0  0  0  0  0  0  0  0  0  0  0
   -6.8543   15.1521   -6.6959 C   0  0  0  0  0  0  0  0  0  0  0  0
   -5.7414   15.5575   -7.6949 C   0  0  0  0  0  0  0  0  0  0  0  0
   -4.5770   14.7500   -7.5103 O   0  0  0  0  0  0  0  0  0  0  0  0
   -6.3943   15.2780   -9.0684 C   0  0  0  0  0  0  0  0  0  0  0  0
   -7.9131   15.2901   -8.8003 C   0  0  0  0  0  0  0  0  0  0  0  0
  -10.9178   17.0874   -3.3373 H   0  0  0  0  0  0  0  0  0  0  0  0
   -6.0314   16.3284  -10.0290 N   0  0  0  0  0  0  0  0  0  0  0  0
   -7.2354   17.0749  -10.4135 C   0  0  0  0  0  0  0  0  0  0  0  0
   -6.8514   18.2216  -11.3512 C   0  0  0  0  0  0  0  0  0  0  0  0
   -6.1834   17.6473  -12.6039 C   0  0  0  0  0  0  0  0  0  0  0  0
   -7.0954   16.8401  -13.2922 F   0  0  0  0  0  0  0  0  0  0  0  0
   -5.7662   18.6939  -13.4332 F   0  0  0  0  0  0  0  0  0  0  0  0
   -4.9717   16.8092  -12.1856 C   0  0  0  0  0  0  0  0  0  0  0  0
   -5.4270   15.7148  -11.2177 C   0  0  0  0  0  0  0  0  0  0  0  0
   -4.0278   15.9654   -1.9615 H   0  0  0  0  0  0  0  0  0  0  0  0
   -9.1895   16.4134   -5.3061 C   0  0  0  0  0  0  0  0  0  0  0  0
   -9.9847   17.6095   -5.0178 N   0  0  0  0  0  0  0  0  0  0  0  0
  -11.3299   17.4988   -4.0580 H   0  0  0  0  0  0  0  0  0  0  0  0
  -10.9799   16.1133   -2.9435 C   0  0  0  0  0  0  0  0  0  0  0  0
  -11.3323   17.4972   -4.0621 S   0  0  0  0  0  0  0  0  0  0  0  0
  -12.3750   17.1553   -4.9650 O   0  0  0  0  0  0  0  0  0  0  0  0
  -11.3568   18.7239   -3.3452 O   0  0  0  0  0  0  0  0  0  0  0  0
 22 23  1  0  0  0
 23 24  2  0  0  0
 23 25  2  0  0  0
 23 20  1  0  0  0
 20 19  1  0  0  0
 19  1  1  0  0  0
  1  2  2  0  0  0
  1  3  1  0  0  0
  3  8  1  0  0  0
  3  4  1  0  0  0
  4  5  1  0  0  0
  5  6  1  0  0  0
  5  7  1  0  0  0
  7 10  1  0  0  0
  7  8  1  0  0  0
 10 17  1  0  0  0
 10 11  1  0  0  0
 11 12  1  0  0  0
 12 13  1  0  0  0
 13 14  1  0  0  0
 13 15  1  0  0  0
 13 16  1  0  0  0
 16 17  1  0  0  0
 20 21  1  0  0  0
  6  9  1  0  0  0
 10 18  1  0  0  0
M  CHG 1  10   1
M  END
> <minimizedAffinity>
-7.53681

$$$$
ZINC000096039599


 23 25  0  0  0  0  0  0  0  0999 V2000
   -6.7669   16.3266   -8.8314 C   0  0  0  0  0  0  0  0  0  0  0  0
   -5.8766   16.6676   -7.6328 C   0  0  0  0  0  0  0  0  0  0  0  0
   -5.0904   15.4192   -7.2212 C   0  0  0  0  0  0  0  0  0  0  0  0
   -6.0739   14.2883   -6.9083 C   0  0  0  0  0  0  0  0  0  0  0  0
   -6.8896   14.0392   -8.0548 O   0  0  0  0  0  0  0  0  0  0  0  0
   -7.6814   15.1547   -8.4643 C   0  0  0  0  0  0  0  0  0  0  0  0
   -8.6047   15.5761   -7.3186 C   0  0  0  0  0  0  0  0  0  0  0  0
   -9.3928   16.8197   -7.7357 C   0  0  0  0  0  0  0  0  0  0  0  0
   -8.4616   17.9120   -8.0433 N   0  0  0  0  0  0  0  0  0  0  0  0
   -7.6228   17.5410   -9.1968 C   0  0  0  0  0  0  0  0  0  0  0  0
   -3.3225   17.9876  -11.7438 H   0  0  0  0  0  0  0  0  0  0  0  0
   -5.8921   15.9390  -10.0252 C   0  0  0  0  0  0  0  0  0  0  0  0
   -6.7206   15.4686  -11.0902 O   0  0  0  0  0  0  0  0  0  0  0  0
   -6.2233   15.7779  -12.3936 C   0  0  0  0  0  0  0  0  0  0  0  0
   -5.4098   17.9952  -13.0127 C   0  0  0  0  0  0  0  0  0  0  0  0
   -5.2346   16.9112  -12.2982 C   0  0  0  0  0  0  0  0  0  0  0  0
   -9.2228   19.1258   -8.3676 C   0  0  0  0  0  0  0  0  0  0  0  0
   -9.3261   19.9963   -7.1418 C   0  0  0  0  0  0  0  0  0  0  0  0
   -9.4359   19.5631   -5.8645 C   0  0  0  0  0  0  0  0  0  0  0  0
   -9.5024   20.6490   -5.0661 N   0  0  0  0  0  0  0  0  0  0  0  0
   -9.6266   20.6392   -3.6064 C   0  0  0  0  0  0  0  0  0  0  0  0
   -9.4312   21.7873   -5.8795 N   0  0  0  0  0  0  0  0  0  0  0  0
   -9.3195   21.3949   -7.1228 C   0  0  0  0  0  0  0  0  0  0  0  0
 15 16  2  0  0  0
 16 14  1  0  0  0
 14 13  1  0  0  0
 13 12  1  0  0  0
  1 12  1  0  0  0
  1  6  1  0  0  0
  1 10  1  0  0  0
  1  2  1  0  0  0
  2  3  1  0  0  0
  3  4  1  0  0  0
  4  5  1  0  0  0
  5  6  1  0  0  0
  6  7  1  0  0  0
  7  8  1  0  0  0
  8  9  1  0  0  0
  9 17  1  0  0  0
  9 10  1  0  0  0
 17 18  1  0  0  0
 18 23  1  0  0  0
 18 19  2  0  0  0
 19 20  1  0  0  0
 20 21  1  0  0  0
 20 22  1  0  0  0
 22 23  2  0  0  0
  9 11  1  0  0  0
M  CHG 1   9   1
M  END
> <minimizedAffinity>
-6.50806

$$$$
ZINC000001641217


 21 22  0  0  0  0  0  0  0  0999 V2000
   -6.3532   14.3063  -10.8504 C   0  0  0  0  0  0  0  0  0  0  0  0
   -5.5766   13.6667   -9.9023 C   0  0  0  0  0  0  0  0  0  0  0  0
   -5.2520   14.3116   -8.7243 C   0  0  0  0  0  0  0  0  0  0  0  0
   -5.7060   15.6018   -8.4933 C   0  0  0  0  0  0  0  0  0  0  0  0
   -5.3877   16.2384   -7.3356 O   0  0  0  0  0  0  0  0  0  0  0  0
   -6.4854   16.2415   -9.4466 C   0  0  0  0  0  0  0  0  0  0  0  0
   -6.8028   15.5944  -10.6249 C   0  0  0  0  0  0  0  0  0  0  0  0
   -8.0497   14.0030  -12.7782 H   0  0  0  0  0  0  0  0  0  0  0  0
   -5.7584   13.8633  -13.3301 O   0  0  0  0  0  0  0  0  0  0  0  0
   -6.7650   13.4814  -12.3520 S   0  0  0  0  0  0  0  0  0  0  0  0
   -8.0939   13.9368  -12.7299 O   0  0  0  0  0  0  0  0  0  0  0  0
   -6.7372   12.0549  -12.0682 O   0  0  0  0  0  0  0  0  0  0  0  0
   -5.7601   13.8596  -13.3273 H   0  0  0  0  0  0  0  0  0  0  0  0
   -5.7601   13.8596  -13.3273 H   0  0  0  0  0  0  0  0  0  0  0  0
   -5.7601   13.8596  -13.3273 H   0  0  0  0  0  0  0  0  0  0  0  0
   -6.9799   17.6433   -9.1991 C   0  0  0  0  0  0  0  0  0  0  0  0
   -7.1178   18.3786  -10.5338 C   0  0  0  0  0  0  0  0  0  0  0  0
   -7.6199   19.8018  -10.2827 C   0  0  0  0  0  0  0  0  0  0  0  0
   -8.9818   19.7468   -9.5876 C   0  0  0  0  0  0  0  0  0  0  0  0
   -8.8440   19.0117   -8.2529 C   0  0  0  0  0  0  0  0  0  0  0  0
   -8.3418   17.5885   -8.5041 C   0  0  0  0  0  0  0  0  0  0  0  0
  9 10  1  0  0  0
 10 11  1  0  0  0
 10 12  1  0  0  0
 10  1  1  0  0  0
  1  7  2  0  0  0
  1  2  1  0  0  0
  2  3  2  0  0  0
  3  4  1  0  0  0
  4  5  1  0  0  0
  4  6  2  0  0  0
  6 16  1  0  0  0
  6  7  1  0  0  0
 16 21  1  0  0  0
 16 17  1  0  0  0
 17 18  1  0  0  0
 18 19  1  0  0  0
 19 20  1  0  0  0
 20 21  1  0  0  0
  9 13  1  0  0  0
 11 14  1  0  0  0
 12 15  1  0  0  0
  5  8  1  0  0  0
M  END
> <minimizedAffinity>
-7.61508

$$$$
ZINC000057644082


 35 38  0  0  0  0  0  0  0  0999 V2000
   -9.0303   17.9421   -6.5065 C   0  0  0  0  0  0  0  0  0  0  0  0
   -9.8699   17.1506   -6.8906 O   0  0  0  0  0  0  0  0  0  0  0  0
   -7.8644   18.0635   -7.1717 N   0  0  0  0  0  0  0  0  0  0  0  0
  -10.4301   18.7483   -4.5373 H   0  0  0  0  0  0  0  0  0  0  0  0
   -9.8332   20.9859   -6.5080 C   0  0  0  0  0  0  0  0  0  0  0  0
   -9.6399   20.1034   -5.3017 C   0  0  0  0  0  0  0  0  0  0  0  0
   -9.2877   18.7687   -5.3134 C   0  0  0  0  0  0  0  0  0  0  0  0
   -9.2195   18.3431   -3.9673 C   0  0  0  0  0  0  0  0  0  0  0  0
   -9.5127   19.3609   -3.2057 N   0  0  0  0  0  0  0  0  0  0  0  0
   -9.7732   20.4726   -4.0146 N   0  0  0  0  0  0  0  0  0  0  0  0
  -10.1227   21.7506   -3.5617 C   0  0  0  0  0  0  0  0  0  0  0  0
  -11.3794   22.0353   -3.3242 N   0  0  0  0  0  0  0  0  0  0  0  0
  -11.7517   23.3061   -2.8710 N   0  0  0  0  0  0  0  0  0  0  0  0
  -10.8164   24.2566   -2.6726 C   0  0  0  0  0  0  0  0  0  0  0  0
  -11.1407   25.3650   -2.2769 O   0  0  0  0  0  0  0  0  0  0  0  0
   -9.4612   23.9614   -2.9248 C   0  0  0  0  0  0  0  0  0  0  0  0
   -9.1205   22.7185   -3.3593 C   0  0  0  0  0  0  0  0  0  0  0  0
  -10.6308   19.4544   -4.2372 H   0  0  0  0  0  0  0  0  0  0  0  0
   -7.6086   17.2420   -8.3575 C   0  0  0  0  0  0  0  0  0  0  0  0
   -7.7272   18.0945   -9.5944 C   0  0  0  0  0  0  0  0  0  0  0  0
   -8.6198   19.1494   -9.6237 C   0  0  0  0  0  0  0  0  0  0  0  0
   -8.7286   19.9316  -10.7586 C   0  0  0  0  0  0  0  0  0  0  0  0
   -7.9446   19.6588  -11.8637 C   0  0  0  0  0  0  0  0  0  0  0  0
   -7.0511   18.6041  -11.8340 C   0  0  0  0  0  0  0  0  0  0  0  0
   -6.9392   17.8249  -10.6980 C   0  0  0  0  0  0  0  0  0  0  0  0
   -5.9653   16.6753  -10.6658 C   0  0  0  0  0  0  0  0  0  0  0  0
   -6.6803   15.4201  -10.9325 N   0  0  0  0  0  0  0  0  0  0  0  0
   -6.1441   14.3581  -10.0703 C   0  0  0  0  0  0  0  0  0  0  0  0
   -6.8909   13.0514  -10.3499 C   0  0  0  0  0  0  0  0  0  0  0  0
   -6.2953   11.9298   -9.4966 C   0  0  0  0  0  0  0  0  0  0  0  0
   -6.7592   12.7202  -11.7351 O   0  0  0  0  0  0  0  0  0  0  0  0
   -7.2465   13.7356  -12.6167 C   0  0  0  0  0  0  0  0  0  0  0  0
   -8.7441   13.9414  -12.3811 C   0  0  0  0  0  0  0  0  0  0  0  0
   -6.5005   15.0437  -12.3414 C   0  0  0  0  0  0  0  0  0  0  0  0
   -7.6692   18.6727   -4.8504 H   0  0  0  0  0  0  0  0  0  0  0  0
  5  6  1  0  0  0
  6 10  1  0  0  0
  6  7  2  0  0  0
  7  1  1  0  0  0
  7  8  1  0  0  0
  1  2  2  0  0  0
  1  3  1  0  0  0
  3 19  1  0  0  0
 19 20  1  0  0  0
 20 25  1  0  0  0
 20 21  2  0  0  0
 21 22  1  0  0  0
 22 23  2  0  0  0
 23 24  1  0  0  0
 24 25  2  0  0  0
 25 26  1  0  0  0
 26 27  1  0  0  0
 27 34  1  0  0  0
 27 28  1  0  0  0
 28 29  1  0  0  0
 29 30  1  0  0  0
 29 31  1  0  0  0
 31 32  1  0  0  0
 32 33  1  0  0  0
 32 34  1  0  0  0
  8  9  2  0  0  0
  9 10  1  0  0  0
 10 11  1  0  0  0
 11 17  1  0  0  0
 11 12  2  0  0  0
 12 13  1  0  0  0
 13 14  1  0  0  0
 14 15  2  0  0  0
 14 16  1  0  0  0
 16 17  2  0  0  0
  3  4  1  0  0  0
 27 35  1  0  0  0
 13 18  1  0  0  0
M  CHG 1  27   1
M  END
> <minimizedAffinity>
-8.78275

$$$$
ZINC000008384271


 30 31  0  0  0  0  0  0  0  0999 V2000
   -5.7170   13.6660  -13.3815 O   0  0  0  0  0  0  0  0  0  0  0  0
   -5.9670   14.3126  -12.3785 C   0  0  0  0  0  0  0  0  0  0  0  0
   -5.8408   15.6541  -12.3885 N   0  0  0  0  0  0  0  0  0  0  0  0
   -6.1152   16.3694  -11.2840 C   0  0  0  0  0  0  0  0  0  0  0  0
   -5.9955   17.5790  -11.3113 O   0  0  0  0  0  0  0  0  0  0  0  0
   -6.5215   15.7697  -10.1464 N   0  0  0  0  0  0  0  0  0  0  0  0
   -6.6649   14.4087  -10.0875 C   0  0  0  0  0  0  0  0  0  0  0  0
   -6.3925   13.6650  -11.2110 C   0  0  0  0  0  0  0  0  0  0  0  0
   -7.0848   13.9829   -8.8539 N   0  0  0  0  0  0  0  0  0  0  0  0
   -7.2512   15.1408   -7.9689 C   0  0  0  0  0  0  0  0  0  0  0  0
   -6.8712   16.3497   -8.8400 C   0  0  0  0  0  0  0  0  0  0  0  0
   -7.9814   17.2401   -8.9685 O   0  0  0  0  0  0  0  0  0  0  0  0
   -5.7154   13.6697  -13.3785 H   0  0  0  0  0  0  0  0  0  0  0  0
   -5.7154   13.6697  -13.3785 H   0  0  0  0  0  0  0  0  0  0  0  0
   -5.7154   13.6697  -13.3785 H   0  0  0  0  0  0  0  0  0  0  0  0
   -6.5370   12.1920  -11.1845 N   0  0  0  0  0  0  0  0  0  0  0  0
   -5.6148   11.4831  -11.5458 O   0  0  0  0  0  0  0  0  0  0  0  0
   -7.5779   11.6889  -10.8014 O   0  0  0  0  0  0  0  0  0  0  0  0
   -8.7040   15.2515   -7.5020 C   0  0  0  0  0  0  0  0  0  0  0  0
   -9.4147   14.0682   -7.8717 O   0  0  0  0  0  0  0  0  0  0  0  0
   -4.6954   10.1091   -9.3604 H   0  0  0  0  0  0  0  0  0  0  0  0
   -8.7399   15.4136   -5.9810 C   0  0  0  0  0  0  0  0  0  0  0  0
   -9.3784   14.2771   -5.3958 O   0  0  0  0  0  0  0  0  0  0  0  0
  -10.9630    9.1492   -9.4061 H   0  0  0  0  0  0  0  0  0  0  0  0
   -9.5213   16.6791   -5.6213 C   0  0  0  0  0  0  0  0  0  0  0  0
  -10.5151   16.9247   -6.6184 O   0  0  0  0  0  0  0  0  0  0  0  0
   -9.9455   10.3225  -11.3237 H   0  0  0  0  0  0  0  0  0  0  0  0
  -10.1980   16.4914   -4.2621 C   0  0  0  0  0  0  0  0  0  0  0  0
  -11.6143   16.6045   -4.4155 O   0  0  0  0  0  0  0  0  0  0  0  0
   -2.8459   11.7153   -7.5967 H   0  0  0  0  0  0  0  0  0  0  0  0
  1  2  2  0  0  0
  2  8  1  0  0  0
  2  3  1  0  0  0
  3  4  1  0  0  0
  4  5  2  0  0  0
  4  6  1  0  0  0
  6 11  1  0  0  0
  6  7  1  0  0  0
  7  8  2  0  0  0
  7  9  1  0  0  0
  8 16  1  0  0  0
 16 17  1  0  0  0
 16 18  2  0  0  0
  9 10  1  0  0  0
 10 19  1  0  0  0
 10 11  1  0  0  0
 19 20  1  0  0  0
 19 22  1  0  0  0
 22 23  1  0  0  0
 22 25  1  0  0  0
 25 26  1  0  0  0
 25 28  1  0  0  0
 28 29  1  0  0  0
 11 12  1  0  0  0
  3 13  1  0  0  0
  9 14  1  0  0  0
 20 21  1  0  0  0
 23 24  1  0  0  0
 26 27  1  0  0  0
 29 30  1  0  0  0
 12 15  1  0  0  0
M  CHG 1  16   1
M  CHG 1  17  -1
M  END
> <minimizedAffinity>
-7.61473

$$$$
ZINC000017333536


 29 31  0  0  0  0  0  0  0  0999 V2000
   -9.1113   15.6333   -6.9368 C   0  0  0  0  0  0  0  0  0  0  0  0
   -9.1111   17.1378   -7.0223 C   0  0  0  0  0  0  0  0  0  0  0  0
   -9.4566   17.7629   -8.2059 C   0  0  0  0  0  0  0  0  0  0  0  0
   -9.4564   19.1429   -8.2844 C   0  0  0  0  0  0  0  0  0  0  0  0
   -9.1113   19.8981   -7.1791 C   0  0  0  0  0  0  0  0  0  0  0  0
   -8.7673   19.2731   -5.9951 C   0  0  0  0  0  0  0  0  0  0  0  0
   -8.7711   17.8930   -5.9156 C   0  0  0  0  0  0  0  0  0  0  0  0
   -9.1108   21.4027   -7.2648 C   0  0  0  0  0  0  0  0  0  0  0  0
   -9.5357   21.9667   -5.9767 N   0  0  0  0  0  0  0  0  0  0  0  0
  -11.0032   22.0236   -5.9269 C   0  0  0  0  0  0  0  0  0  0  0  0
  -11.4434   22.6114   -4.5838 C   0  0  0  0  0  0  0  0  0  0  0  0
  -10.8617   23.9081   -4.4233 O   0  0  0  0  0  0  0  0  0  0  0  0
   -9.4328   23.9082   -4.4884 C   0  0  0  0  0  0  0  0  0  0  0  0
   -8.9887   23.3227   -5.8312 C   0  0  0  0  0  0  0  0  0  0  0  0
   -1.2209   20.3856   -9.8794 H   0  0  0  0  0  0  0  0  0  0  0  0
   -7.9296   15.1050   -7.6229 N   0  0  0  0  0  0  0  0  0  0  0  0
  -11.6552   16.8150   -8.8426 H   0  0  0  0  0  0  0  0  0  0  0  0
   -8.0944   14.3273   -9.0757 S   0  0  0  0  0  0  0  0  0  0  0  0
   -9.4860   14.3019   -9.3616 O   0  0  0  0  0  0  0  0  0  0  0  0
   -7.2958   13.1547   -8.9958 O   0  0  0  0  0  0  0  0  0  0  0  0
   -7.4406   15.0046  -11.6381 C   0  0  0  0  0  0  0  0  0  0  0  0
   -6.8597   15.8086  -12.6006 C   0  0  0  0  0  0  0  0  0  0  0  0
   -6.1862   16.9569  -12.2276 C   0  0  0  0  0  0  0  0  0  0  0  0
   -6.0940   17.3011  -10.8922 C   0  0  0  0  0  0  0  0  0  0  0  0
   -6.6759   16.4974   -9.9294 C   0  0  0  0  0  0  0  0  0  0  0  0
   -7.3529   15.3517  -10.3027 C   0  0  0  0  0  0  0  0  0  0  0  0
   -9.3430   13.8298  -12.3293 O   0  0  0  0  0  0  0  0  0  0  0  0
   -8.1617   13.7753  -12.0374 N   0  0  0  0  0  0  0  0  0  0  0  0
   -7.5727   12.7100  -12.0790 O   0  0  0  0  0  0  0  0  0  0  0  0
 27 28  1  0  0  0
 28 29  2  0  0  0
 28 21  1  0  0  0
 21 26  2  0  0  0
 21 22  1  0  0  0
 22 23  2  0  0  0
 23 24  1  0  0  0
 24 25  2  0  0  0
 25 26  1  0  0  0
 26 18  1  0  0  0
 18 19  2  0  0  0
 18 20  2  0  0  0
 18 16  1  0  0  0
 16  1  1  0  0  0
  1  2  1  0  0  0
  2  7  1  0  0  0
  2  3  2  0  0  0
  3  4  1  0  0  0
  4  5  2  0  0  0
  5  8  1  0  0  0
  5  6  1  0  0  0
  8  9  1  0  0  0
  9 14  1  0  0  0
  9 10  1  0  0  0
 10 11  1  0  0  0
 11 12  1  0  0  0
 12 13  1  0  0  0
 13 14  1  0  0  0
  6  7  2  0  0  0
 16 17  1  0  0  0
  9 15  1  0  0  0
M  CHG 1   9   1
M  CHG 1  27  -1
M  CHG 1  28   1
M  END
> <minimizedAffinity>
-7.75670

$$$$
ZINC000521395245


 24 26  0  0  0  0  0  0  0  0999 V2000
   -8.3091   17.5275   -8.1035 N   0  0  0  0  0  0  0  0  0  0  0  0
   -8.9996   16.2849   -7.7351 C   0  0  0  0  0  0  0  0  0  0  0  0
   -8.6621   15.1917   -8.7515 C   0  0  0  0  0  0  0  0  0  0  0  0
   -7.1472   14.9693   -8.7705 C   0  0  0  0  0  0  0  0  0  0  0  0
   -6.4497   16.2897   -9.1092 C   0  0  0  0  0  0  0  0  0  0  0  0
   -6.8513   17.3512   -8.0825 C   0  0  0  0  0  0  0  0  0  0  0  0
   -6.8116   13.9623   -9.7859 N   0  0  0  0  0  0  0  0  0  0  0  0
   -8.0068   13.7034  -10.6119 C   0  0  0  0  0  0  0  0  0  0  0  0
   -7.5747   13.1166  -11.9329 C   0  0  0  0  0  0  0  0  0  0  0  0
   -7.5548   11.5794  -11.8901 C   0  0  0  0  0  0  0  0  0  0  0  0
   -7.0152   11.0728  -10.6534 O   0  0  0  0  0  0  0  0  0  0  0  0
   -5.8828   11.7338  -10.1460 C   0  0  0  0  0  0  0  0  0  0  0  0
   -6.3360   12.8110   -9.1408 C   0  0  0  0  0  0  0  0  0  0  0  0
  -10.5259   18.5576   -6.9304 H   0  0  0  0  0  0  0  0  0  0  0  0
   -9.0324   19.8133   -7.8218 C   0  0  0  0  0  0  0  0  0  0  0  0
   -9.4168   20.8532   -6.9986 C   0  0  0  0  0  0  0  0  0  0  0  0
   -9.4632   20.6711   -5.6273 C   0  0  0  0  0  0  0  0  0  0  0  0
   -9.9469   21.9808   -4.5955 Cl  0  0  0  0  0  0  0  0  0  0  0  0
   -9.1252   19.4474   -5.0775 C   0  0  0  0  0  0  0  0  0  0  0  0
   -8.7404   18.4036   -5.8961 C   0  0  0  0  0  0  0  0  0  0  0  0
   -8.6980   18.5817   -7.2728 C   0  0  0  0  0  0  0  0  0  0  0  0
   -9.8481   19.5269   -9.9964 O   0  0  0  0  0  0  0  0  0  0  0  0
   -8.9824   20.0088   -9.2880 N   0  0  0  0  0  0  0  0  0  0  0  0
   -8.0783   20.6556   -9.7857 O   0  0  0  0  0  0  0  0  0  0  0  0
 22 23  1  0  0  0
 23 24  2  0  0  0
 23 15  1  0  0  0
 15 21  2  0  0  0
 15 16  1  0  0  0
 16 17  2  0  0  0
 17 18  1  0  0  0
 17 19  1  0  0  0
 19 20  2  0  0  0
 20 21  1  0  0  0
 21  1  1  0  0  0
  1  6  1  0  0  0
  1  2  1  0  0  0
  2  3  1  0  0  0
  3  4  1  0  0  0
  4  7  1  0  0  0
  4  5  1  0  0  0
  7 13  1  0  0  0
  7  8  1  0  0  0
  8  9  1  0  0  0
  9 10  1  0  0  0
 10 11  1  0  0  0
 11 12  1  0  0  0
 12 13  1  0  0  0
  5  6  1  0  0  0
  7 14  1  0  0  0
M  CHG 1   7   1
M  CHG 1  22  -1
M  CHG 1  23   1
M  END
> <minimizedAffinity>
-7.54707

$$$$
ZINC000034762316


 26 28  0  0  0  0  0  0  0  0999 V2000
   -6.2341   15.1480  -11.2576 N   0  0  0  0  0  0  0  0  0  0  0  0
   -5.6799   16.3194  -11.2121 C   0  0  0  0  0  0  0  0  0  0  0  0
   -6.4304   17.5045  -11.6484 C   0  0  0  0  0  0  0  0  0  0  0  0
   -7.2345   18.2711  -10.6981 C   0  0  0  0  0  0  0  0  0  0  0  0
   -7.3164   17.9059   -9.3492 C   0  0  0  0  0  0  0  0  0  0  0  0
   -8.0771   18.6479   -8.4951 C   0  0  0  0  0  0  0  0  0  0  0  0
   -8.7749   19.7654   -8.9463 C   0  0  0  0  0  0  0  0  0  0  0  0
   -8.7174   20.1480  -10.2520 C   0  0  0  0  0  0  0  0  0  0  0  0
   -7.9426   19.4069  -11.1602 C   0  0  0  0  0  0  0  0  0  0  0  0
   -7.8591   19.7724  -12.5157 C   0  0  0  0  0  0  0  0  0  0  0  0
   -7.1074   19.0495  -13.3862 C   0  0  0  0  0  0  0  0  0  0  0  0
   -6.3869   17.9267  -12.9780 C   0  0  0  0  0  0  0  0  0  0  0  0
   -5.6490   17.2344  -13.8810 O   0  0  0  0  0  0  0  0  0  0  0  0
   -2.3906   15.3890  -12.8098 H   0  0  0  0  0  0  0  0  0  0  0  0
   -5.4856   13.9661  -10.8225 C   0  0  0  0  0  0  0  0  0  0  0  0
   -5.2436   13.4620  -13.1208 O   0  0  0  0  0  0  0  0  0  0  0  0
   -5.3154   13.0232  -11.9856 C   0  0  0  0  0  0  0  0  0  0  0  0
   -5.2447   11.8216  -11.7909 O   0  0  0  0  0  0  0  0  0  0  0  0
   -5.2420   13.4626  -13.1161 H   0  0  0  0  0  0  0  0  0  0  0  0
   -6.2524   13.2609   -9.7020 C   0  0  0  0  0  0  0  0  0  0  0  0
   -6.2457   14.1252   -8.4675 C   0  0  0  0  0  0  0  0  0  0  0  0
   -5.1557   14.6440   -7.8706 C   0  0  0  0  0  0  0  0  0  0  0  0
   -5.5983   15.3594   -6.7908 N   0  0  0  0  0  0  0  0  0  0  0  0
   -6.9442   15.2528   -6.7654 C   0  0  0  0  0  0  0  0  0  0  0  0
   -7.3247   14.5174   -7.7740 N   0  0  0  0  0  0  0  0  0  0  0  0
   -6.2415   10.3470  -10.9607 H   0  0  0  0  0  0  0  0  0  0  0  0
 16 17  2  0  0  0
 17 18  1  0  0  0
 17 15  1  0  0  0
 15 20  1  0  0  0
 15  1  1  0  0  0
 20 21  1  0  0  0
 21 25  1  0  0  0
 21 22  2  0  0  0
 22 23  1  0  0  0
 23 24  1  0  0  0
 24 25  2  0  0  0
  1  2  2  0  0  0
  2  3  1  0  0  0
  3 12  2  0  0  0
  3  4  1  0  0  0
  4  9  1  0  0  0
  4  5  2  0  0  0
  5  6  1  0  0  0
  6  7  2  0  0  0
  7  8  1  0  0  0
  8  9  2  0  0  0
  9 10  1  0  0  0
 10 11  2  0  0  0
 11 12  1  0  0  0
 12 13  1  0  0  0
 18 19  1  0  0  0
 23 26  1  0  0  0
 13 14  1  0  0  0
M  END
> <minimizedAffinity>
-8.51492

$$$$
ZINC000036099281


 20 20  0  0  0  0  0  0  0  0999 V2000
   -7.2744   13.9330  -10.2743 N   0  0  0  0  0  0  0  0  0  0  0  0
   -7.2175   14.3864  -11.6704 C   0  0  0  0  0  0  0  0  0  0  0  0
   -5.7639   14.6671  -12.0566 C   0  0  0  0  0  0  0  0  0  0  0  0
   -5.3802   13.8027  -13.1279 O   0  0  0  0  0  0  0  0  0  0  0  0
   -4.3766   17.5689  -15.7210 H   0  0  0  0  0  0  0  0  0  0  0  0
   -5.6270   16.1241  -12.5029 C   0  0  0  0  0  0  0  0  0  0  0  0
   -6.8542   16.8143  -12.2587 O   0  0  0  0  0  0  0  0  0  0  0  0
   -6.7100   18.2307  -12.1354 C   0  0  0  0  0  0  0  0  0  0  0  0
   -8.3121   19.8351  -11.2297 C   0  0  0  0  0  0  0  0  0  0  0  0
   -7.6231   18.7358  -11.0481 C   0  0  0  0  0  0  0  0  0  0  0  0
   -6.8861   12.5206  -10.1633 C   0  0  0  0  0  0  0  0  0  0  0  0
   -7.5579   11.7177  -11.2791 C   0  0  0  0  0  0  0  0  0  0  0  0
   -6.6164   10.7999  -11.8387 O   0  0  0  0  0  0  0  0  0  0  0  0
   -5.3774   10.7336  -11.1297 C   0  0  0  0  0  0  0  0  0  0  0  0
   -6.4380   14.7781   -9.4117 C   0  0  0  0  0  0  0  0  0  0  0  0
   -7.3096   15.7635   -8.6765 C   0  0  0  0  0  0  0  0  0  0  0  0
   -8.6309   15.6136   -8.5713 C   0  0  0  0  0  0  0  0  0  0  0  0
   -9.3047   16.9513   -7.6492 S   0  0  0  0  0  0  0  0  0  0  0  0
   -7.7069   17.6598   -7.4527 C   0  0  0  0  0  0  0  0  0  0  0  0
   -6.7989   16.8896   -8.0541 C   0  0  0  0  0  0  0  0  0  0  0  0
  9 10  2  0  0  0
 10  8  1  0  0  0
  8  7  1  0  0  0
  7  6  1  0  0  0
  6  3  1  0  0  0
  3  4  1  0  0  0
  3  2  1  0  0  0
  2  1  1  0  0  0
  1 11  1  0  0  0
  1 15  1  0  0  0
 11 12  1  0  0  0
 12 13  1  0  0  0
 13 14  1  0  0  0
 15 16  1  0  0  0
 16 20  1  0  0  0
 16 17  2  0  0  0
 17 18  1  0  0  0
 18 19  1  0  0  0
 19 20  2  0  0  0
  4  5  1  0  0  0
M  END
> <minimizedAffinity>
-5.27884

$$$$
ZINC000020800271


 24 25  0  0  0  0  0  0  0  0999 V2000
   -5.6885   14.2974   -9.7626 C   0  0  0  0  0  0  0  0  0  0  0  0
   -4.5754   13.8201   -9.8274 O   0  0  0  0  0  0  0  0  0  0  0  0
   -6.7668   13.5300  -10.0171 N   0  0  0  0  0  0  0  0  0  0  0  0
   -8.1343   14.0450   -9.8340 C   0  0  0  0  0  0  0  0  0  0  0  0
   -8.8422   14.0129  -11.1898 C   0  0  0  0  0  0  0  0  0  0  0  0
   -8.6315   12.7332  -11.8525 N   0  0  0  0  0  0  0  0  0  0  0  0
   -7.6248   11.8995  -11.5867 C   0  0  0  0  0  0  0  0  0  0  0  0
   -7.5095   10.8981  -12.2610 O   0  0  0  0  0  0  0  0  0  0  0  0
   -6.6256   12.1465  -10.4948 C   0  0  0  0  0  0  0  0  0  0  0  0
   -1.3947   19.1148   -9.6163 H   0  0  0  0  0  0  0  0  0  0  0  0
   -5.8658   15.7488   -9.3976 C   0  0  0  0  0  0  0  0  0  0  0  0
   -6.3834   18.5268  -12.5378 N   0  0  0  0  0  0  0  0  0  0  0  0
   -6.0765   17.1344  -12.8938 C   0  0  0  0  0  0  0  0  0  0  0  0
   -5.4571   16.4267  -11.6864 C   0  0  0  0  0  0  0  0  0  0  0  0
   -6.3932   16.4839  -10.5550 N   0  0  0  0  0  0  0  0  0  0  0  0
   -6.7001   17.8764  -10.1990 C   0  0  0  0  0  0  0  0  0  0  0  0
   -7.3195   18.5841  -11.4064 C   0  0  0  0  0  0  0  0  0  0  0  0
   -7.1420   18.2905  -14.8543 C   0  0  0  0  0  0  0  0  0  0  0  0
   -6.9108   19.2620  -13.6952 C   0  0  0  0  0  0  0  0  0  0  0  0
   -5.2113   11.9249  -11.0349 C   0  0  0  0  0  0  0  0  0  0  0  0
   -4.9036   10.4497  -11.0469 C   0  0  0  0  0  0  0  0  0  0  0  0
   -4.2523    9.9757  -11.9474 O   0  0  0  0  0  0  0  0  0  0  0  0
   -5.3532    9.6623  -10.0571 O   0  0  0  0  0  0  0  0  0  0  0  0
   -4.5833    8.4664   -9.7648 C   0  0  0  0  0  0  0  0  0  0  0  0
 18 19  1  0  0  0
 19 12  1  0  0  0
 12 17  1  0  0  0
 12 13  1  0  0  0
 13 14  1  0  0  0
 14 15  1  0  0  0
 15 11  1  0  0  0
 15 16  1  0  0  0
 11  1  1  0  0  0
  1  2  2  0  0  0
  1  3  1  0  0  0
  3  9  1  0  0  0
  3  4  1  0  0  0
  4  5  1  0  0  0
  5  6  1  0  0  0
  6  7  1  0  0  0
  7  8  2  0  0  0
  7  9  1  0  0  0
  9 20  1  0  0  0
 20 21  1  0  0  0
 21 22  2  0  0  0
 21 23  1  0  0  0
 23 24  1  0  0  0
 16 17  1  0  0  0
  6 10  1  0  0  0
M  END
> <minimizedAffinity>
-6.87735

$$$$
ZINC000006385094


 26 27  0  0  0  0  0  0  0  0999 V2000
   -6.4481   14.8176  -11.4108 C   0  0  0  0  0  0  0  0  0  0  0  0
   -5.7465   15.3920  -10.2510 N   0  0  0  0  0  0  0  0  0  0  0  0
   -6.3829   15.4264   -9.0641 C   0  0  0  0  0  0  0  0  0  0  0  0
   -5.5726   16.0935   -7.7115 S   0  0  0  0  0  0  0  0  0  0  0  0
   -7.6268   14.9575   -8.9052 N   0  0  0  0  0  0  0  0  0  0  0  0
   -8.3641   14.4041   -9.9200 C   0  0  0  0  0  0  0  0  0  0  0  0
   -9.6134   13.9555   -9.6687 O   0  0  0  0  0  0  0  0  0  0  0  0
   -7.8535   14.3012  -11.1779 C   0  0  0  0  0  0  0  0  0  0  0  0
   -5.0391   12.8128  -11.0895 H   0  0  0  0  0  0  0  0  0  0  0  0
   -5.0391   12.8128  -11.0895 H   0  0  0  0  0  0  0  0  0  0  0  0
   -5.0391   12.8128  -11.0895 H   0  0  0  0  0  0  0  0  0  0  0  0
   -5.6161   13.6775  -11.9389 C   0  0  0  0  0  0  0  0  0  0  0  0
   -5.3838   13.5964  -13.1218 O   0  0  0  0  0  0  0  0  0  0  0  0
   -5.7365   11.4324  -11.1482 C   0  0  0  0  0  0  0  0  0  0  0  0
   -5.1331   12.7521  -11.0950 O   0  0  0  0  0  0  0  0  0  0  0  0
   -8.6174   13.7244  -12.2430 C   0  0  0  0  0  0  0  0  0  0  0  0
   -9.2233   13.2667  -13.0880 N   0  0  0  0  0  0  0  0  0  0  0  0
   -6.5147   15.8907  -12.4993 C   0  0  0  0  0  0  0  0  0  0  0  0
   -5.8785   17.1597  -11.9932 C   0  0  0  0  0  0  0  0  0  0  0  0
   -4.6794   17.2226  -11.8590 O   0  0  0  0  0  0  0  0  0  0  0  0
   -6.7201   18.3253  -11.6613 C   0  0  0  0  0  0  0  0  0  0  0  0
   -6.9280   18.7079  -10.3301 C   0  0  0  0  0  0  0  0  0  0  0  0
   -7.7230   19.8061  -10.0661 C   0  0  0  0  0  0  0  0  0  0  0  0
   -8.2817   20.4890  -11.0453 N   0  0  0  0  0  0  0  0  0  0  0  0
   -8.1126   20.1641  -12.3116 C   0  0  0  0  0  0  0  0  0  0  0  0
   -7.3290   19.0842  -12.6687 C   0  0  0  0  0  0  0  0  0  0  0  0
 14 15  1  0  0  0
 15 12  1  0  0  0
 12 13  2  0  0  0
  1 12  1  0  0  0
  1  8  1  0  0  0
  1 18  1  0  0  0
  1  2  1  0  0  0
 18 19  1  0  0  0
 19 20  2  0  0  0
 19 21  1  0  0  0
 21 26  1  0  0  0
 21 22  2  0  0  0
 22 23  1  0  0  0
 23 24  2  0  0  0
 24 25  1  0  0  0
 25 26  2  0  0  0
  2  3  1  0  0  0
  3  4  2  0  0  0
  3  5  1  0  0  0
  5  6  1  0  0  0
  6  7  1  0  0  0
  6  8  2  0  0  0
  8 16  1  0  0  0
 16 17  3  0  0  0
  2  9  1  0  0  0
  5 10  1  0  0  0
  7 11  1  0  0  0
M  END
> <minimizedAffinity>
-7.45453

$$$$
ZINC000026781664


 25 26  0  0  0  0  0  0  0  0999 V2000
   -8.5128   15.4953   -7.2589 C   0  0  0  0  0  0  0  0  0  0  0  0
   -7.8677   15.0870   -8.5848 C   0  0  0  0  0  0  0  0  0  0  0  0
   -8.1641   13.7157   -8.8564 O   0  0  0  0  0  0  0  0  0  0  0  0
  -14.2465   16.7247   -3.0106 H   0  0  0  0  0  0  0  0  0  0  0  0
   -6.3519   15.2728   -8.4929 C   0  0  0  0  0  0  0  0  0  0  0  0
   -5.8927   16.1108   -9.6087 N   0  0  0  0  0  0  0  0  0  0  0  0
   -5.5683   15.2577  -10.7583 C   0  0  0  0  0  0  0  0  0  0  0  0
   -5.0128   16.1175  -11.8956 C   0  0  0  0  0  0  0  0  0  0  0  0
   -6.0644   17.1523  -12.3064 C   0  0  0  0  0  0  0  0  0  0  0  0
   -6.4496   17.9877  -11.0822 C   0  0  0  0  0  0  0  0  0  0  0  0
   -7.5556   18.9736  -11.4640 C   0  0  0  0  0  0  0  0  0  0  0  0
   -6.9525   17.0575   -9.9760 C   0  0  0  0  0  0  0  0  0  0  0  0
   -4.8937    7.8690   -2.3654 H   0  0  0  0  0  0  0  0  0  0  0  0
   -9.6543   16.3153   -7.5171 O   0  0  0  0  0  0  0  0  0  0  0  0
   -9.2829   20.3496   -6.7230 C   0  0  0  0  0  0  0  0  0  0  0  0
   -9.3505   19.9035   -8.0360 C   0  0  0  0  0  0  0  0  0  0  0  0
   -9.4744   18.5540   -8.3010 C   0  0  0  0  0  0  0  0  0  0  0  0
   -9.5318   17.6440   -7.2555 C   0  0  0  0  0  0  0  0  0  0  0  0
   -9.4639   18.0889   -5.9433 C   0  0  0  0  0  0  0  0  0  0  0  0
   -9.3347   19.4377   -5.6771 C   0  0  0  0  0  0  0  0  0  0  0  0
  -10.0974   23.8943   -5.7461 C   0  0  0  0  0  0  0  0  0  0  0  0
  -10.2460   22.4466   -6.1376 C   0  0  0  0  0  0  0  0  0  0  0  0
  -11.3460   21.9365   -6.1685 O   0  0  0  0  0  0  0  0  0  0  0  0
   -9.1566   21.7186   -6.4534 N   0  0  0  0  0  0  0  0  0  0  0  0
   -8.0348   22.1387   -5.8351 H   0  0  0  0  0  0  0  0  0  0  0  0
 21 22  1  0  0  0
 22 23  2  0  0  0
 22 24  1  0  0  0
 24 15  1  0  0  0
 15 20  2  0  0  0
 15 16  1  0  0  0
 16 17  2  0  0  0
 17 18  1  0  0  0
 18 14  1  0  0  0
 18 19  2  0  0  0
 14  1  1  0  0  0
  1  2  1  0  0  0
  2  3  1  0  0  0
  2  5  1  0  0  0
  5  6  1  0  0  0
  6 12  1  0  0  0
  6  7  1  0  0  0
  7  8  1  0  0  0
  8  9  1  0  0  0
  9 10  1  0  0  0
 10 11  1  0  0  0
 10 12  1  0  0  0
 19 20  1  0  0  0
 24 25  1  0  0  0
  3  4  1  0  0  0
  6 13  1  0  0  0
M  CHG 1   6   1
M  END
> <minimizedAffinity>
-7.16886

$$$$
ZINC000106669754


 22 23  0  0  0  0  0  0  0  0999 V2000
   -7.6230   16.7417  -10.3755 C   0  0  0  0  0  0  0  0  0  0  0  0
   -8.2445   14.3101  -11.8066 C   0  0  0  0  0  0  0  0  0  0  0  0
   -7.2414   14.2872  -10.6822 C   0  0  0  0  0  0  0  0  0  0  0  0
   -6.9441   15.4504   -9.9975 C   0  0  0  0  0  0  0  0  0  0  0  0
   -6.0242   15.4293   -8.9657 C   0  0  0  0  0  0  0  0  0  0  0  0
   -5.4015   14.2450   -8.6190 C   0  0  0  0  0  0  0  0  0  0  0  0
   -5.6990   13.0815   -9.3039 C   0  0  0  0  0  0  0  0  0  0  0  0
   -6.6228   13.1015  -10.3317 C   0  0  0  0  0  0  0  0  0  0  0  0
   -6.9412   11.8557  -11.0650 N   0  0  0  0  0  0  0  0  0  0  0  0
   -7.8896   11.1726  -10.7222 O   0  0  0  0  0  0  0  0  0  0  0  0
   -6.2549   11.5137  -12.0113 O   0  0  0  0  0  0  0  0  0  0  0  0
   -6.6768   17.8551  -10.2235 N   0  0  0  0  0  0  0  0  0  0  0  0
   -6.9501   18.5590   -8.9648 C   0  0  0  0  0  0  0  0  0  0  0  0
   -8.4030   19.0391   -8.9494 C   0  0  0  0  0  0  0  0  0  0  0  0
   -8.6332   19.9896  -10.1280 C   0  0  0  0  0  0  0  0  0  0  0  0
   -8.2740   19.2683  -11.4303 C   0  0  0  0  0  0  0  0  0  0  0  0
   -6.8272   18.7806  -11.3528 C   0  0  0  0  0  0  0  0  0  0  0  0
   -8.8094   16.0700   -8.1946 H   0  0  0  0  0  0  0  0  0  0  0  0
   -6.4628   18.0585  -12.6515 C   0  0  0  0  0  0  0  0  0  0  0  0
   -4.9676   17.7341  -12.6525 C   0  0  0  0  0  0  0  0  0  0  0  0
   -6.7686   18.8992  -13.7659 O   0  0  0  0  0  0  0  0  0  0  0  0
  -10.5801   21.4379  -11.6759 H   0  0  0  0  0  0  0  0  0  0  0  0
  2  3  1  0  0  0
  3  8  2  0  0  0
  3  4  1  0  0  0
  4  1  1  0  0  0
  4  5  2  0  0  0
  1 12  1  0  0  0
 12 17  1  0  0  0
 12 13  1  0  0  0
 13 14  1  0  0  0
 14 15  1  0  0  0
 15 16  1  0  0  0
 16 17  1  0  0  0
 17 19  1  0  0  0
 19 20  1  0  0  0
 19 21  1  0  0  0
  5  6  1  0  0  0
  6  7  2  0  0  0
  7  8  1  0  0  0
  8  9  1  0  0  0
  9 10  1  0  0  0
  9 11  2  0  0  0
 12 18  1  0  0  0
 21 22  1  0  0  0
M  CHG 1   9   1
M  CHG 1  10  -1
M  CHG 1  12   1
M  END
> <minimizedAffinity>
-7.39854

$$$$
ZINC000096445689


 26 28  0  0  0  0  0  0  0  0999 V2000
   -7.8957   17.9204   -8.5481 C   0  0  0  0  0  0  0  0  0  0  0  0
   -8.0432   18.9675   -9.6556 C   0  0  0  0  0  0  0  0  0  0  0  0
   -7.6102   18.3558  -10.9900 C   0  0  0  0  0  0  0  0  0  0  0  0
   -6.2141   17.9103  -10.8956 N   0  0  0  0  0  0  0  0  0  0  0  0
   -6.0567   16.8704   -9.8708 C   0  0  0  0  0  0  0  0  0  0  0  0
   -6.4433   17.4377   -8.5030 C   0  0  0  0  0  0  0  0  0  0  0  0
   -9.3438   18.0854   -6.5955 C   0  0  0  0  0  0  0  0  0  0  0  0
  -10.0315   17.1991   -7.0671 O   0  0  0  0  0  0  0  0  0  0  0  0
   -8.2533   18.5176   -7.2590 N   0  0  0  0  0  0  0  0  0  0  0  0
  -10.7750   18.3366   -4.5338 H   0  0  0  0  0  0  0  0  0  0  0  0
   -9.8923   21.1214   -6.0868 C   0  0  0  0  0  0  0  0  0  0  0  0
   -9.9434   20.0071   -5.0735 C   0  0  0  0  0  0  0  0  0  0  0  0
   -9.7019   18.6833   -5.3050 C   0  0  0  0  0  0  0  0  0  0  0  0
   -9.8503   18.0217   -4.1387 O   0  0  0  0  0  0  0  0  0  0  0  0
  -10.1794   18.8901   -3.1737 C   0  0  0  0  0  0  0  0  0  0  0  0
  -10.2425   20.1298   -3.7076 C   0  0  0  0  0  0  0  0  0  0  0  0
   -5.7211   17.4442  -12.1986 C   0  0  0  0  0  0  0  0  0  0  0  0
   -6.7671   16.5328  -12.8434 C   0  0  0  0  0  0  0  0  0  0  0  0
   -6.4966   15.1412  -12.4743 N   0  0  0  0  0  0  0  0  0  0  0  0
   -7.3919   14.2639  -11.9743 C   0  0  0  0  0  0  0  0  0  0  0  0
   -6.7491   13.0914  -11.7671 C   0  0  0  0  0  0  0  0  0  0  0  0
   -5.4151   13.2578  -12.1537 C   0  0  0  0  0  0  0  0  0  0  0  0
   -5.2640   14.4843  -12.5834 N   0  0  0  0  0  0  0  0  0  0  0  0
   -7.3513   11.8516  -11.2276 N   0  0  0  0  0  0  0  0  0  0  0  0
   -7.8588   11.0422  -11.9833 O   0  0  0  0  0  0  0  0  0  0  0  0
   -7.3393   11.6407  -10.0280 O   0  0  0  0  0  0  0  0  0  0  0  0
 11 12  1  0  0  0
 12 16  1  0  0  0
 12 13  2  0  0  0
 13  7  1  0  0  0
 13 14  1  0  0  0
  7  8  2  0  0  0
  7  9  1  0  0  0
  9  1  1  0  0  0
  1  6  1  0  0  0
  1  2  1  0  0  0
  2  3  1  0  0  0
  3  4  1  0  0  0
  4 17  1  0  0  0
  4  5  1  0  0  0
 17 18  1  0  0  0
 18 19  1  0  0  0
 19 23  1  0  0  0
 19 20  1  0  0  0
 20 21  2  0  0  0
 21 24  1  0  0  0
 21 22  1  0  0  0
 24 25  1  0  0  0
 24 26  2  0  0  0
 22 23  2  0  0  0
  5  6  1  0  0  0
 14 15  1  0  0  0
 15 16  2  0  0  0
  9 10  1  0  0  0
M  CHG 1  24   1
M  CHG 1  25  -1
M  END
> <minimizedAffinity>
-7.54733

$$$$
ZINC000019704626


 26 28  0  0  0  0  0  0  0  0999 V2000
   -8.5349   18.9243   -9.3466 C   0  0  0  0  0  0  0  0  0  0  0  0
   -7.5603   18.1457   -9.8709 C   0  0  0  0  0  0  0  0  0  0  0  0
   -7.2424   18.6481  -11.1369 C   0  0  0  0  0  0  0  0  0  0  0  0
   -7.9991   19.6910  -11.3646 N   0  0  0  0  0  0  0  0  0  0  0  0
   -8.8273   19.8822  -10.2510 N   0  0  0  0  0  0  0  0  0  0  0  0
  -13.7161   20.0368   -4.2153 H   0  0  0  0  0  0  0  0  0  0  0  0
   -9.9283   20.5172   -4.8653 C   0  0  0  0  0  0  0  0  0  0  0  0
  -10.4575   21.5723   -5.1437 O   0  0  0  0  0  0  0  0  0  0  0  0
   -9.3702   19.7666   -5.8356 N   0  0  0  0  0  0  0  0  0  0  0  0
   -8.7046   18.4703   -5.6400 C   0  0  0  0  0  0  0  0  0  0  0  0
   -8.2493   17.9748   -7.0289 C   0  0  0  0  0  0  0  0  0  0  0  0
   -9.1824   18.7491   -7.9971 C   0  0  0  0  0  0  0  0  0  0  0  0
   -9.3317   20.1062   -7.2697 C   0  0  0  0  0  0  0  0  0  0  0  0
   -9.8947   20.0456   -3.4344 C   0  0  0  0  0  0  0  0  0  0  0  0
   -9.2382   21.6587   -1.7523 C   0  0  0  0  0  0  0  0  0  0  0  0
   -8.7660   20.6764   -2.7373 N   0  0  0  0  0  0  0  0  0  0  0  0
   -7.9077   19.6666   -2.1038 C   0  0  0  0  0  0  0  0  0  0  0  0
   -6.2078   18.0851  -12.0769 C   0  0  0  0  0  0  0  0  0  0  0  0
   -6.7942   17.0464  -12.8637 O   0  0  0  0  0  0  0  0  0  0  0  0
   -6.6051   15.7690  -12.4392 C   0  0  0  0  0  0  0  0  0  0  0  0
   -7.6800   14.8953  -12.3658 C   0  0  0  0  0  0  0  0  0  0  0  0
   -7.4859   13.5975  -11.9340 C   0  0  0  0  0  0  0  0  0  0  0  0
   -6.2203   13.1691  -11.5745 C   0  0  0  0  0  0  0  0  0  0  0  0
   -5.9790   11.5379  -11.0317 Cl  0  0  0  0  0  0  0  0  0  0  0  0
   -5.1468   14.0389  -11.6475 C   0  0  0  0  0  0  0  0  0  0  0  0
   -5.3359   15.3358  -12.0841 C   0  0  0  0  0  0  0  0  0  0  0  0
 15 16  1  0  0  0
 16 17  1  0  0  0
 16 14  1  0  0  0
 14  7  1  0  0  0
  7  8  2  0  0  0
  7  9  1  0  0  0
  9 13  1  0  0  0
  9 10  1  0  0  0
 10 11  1  0  0  0
 11 12  1  0  0  0
 12  1  1  0  0  0
 12 13  1  0  0  0
  1  5  1  0  0  0
  1  2  2  0  0  0
  2  3  1  0  0  0
  3 18  1  0  0  0
  3  4  2  0  0  0
 18 19  1  0  0  0
 19 20  1  0  0  0
 20 26  1  0  0  0
 20 21  2  0  0  0
 21 22  1  0  0  0
 22 23  2  0  0  0
 23 24  1  0  0  0
 23 25  1  0  0  0
 25 26  2  0  0  0
  4  5  1  0  0  0
  5  6  1  0  0  0
M  END
> <minimizedAffinity>
-6.99664

$$$$
ZINC000257271133


 27 29  0  0  0  0  0  0  0  0999 V2000
   -5.6316   16.3104   -7.4920 C   0  0  0  0  0  0  0  0  0  0  0  0
   -6.5109   15.8008   -8.6357 C   0  0  0  0  0  0  0  0  0  0  0  0
   -7.9636   16.2140   -8.3868 C   0  0  0  0  0  0  0  0  0  0  0  0
   -8.0578   17.6803   -8.3727 N   0  0  0  0  0  0  0  0  0  0  0  0
   -7.6114   18.2112   -9.6681 C   0  0  0  0  0  0  0  0  0  0  0  0
   -6.1593   17.7942   -9.9147 C   0  0  0  0  0  0  0  0  0  0  0  0
   -6.0644   16.3678   -9.8706 O   0  0  0  0  0  0  0  0  0  0  0  0
   -6.5919   15.7686   -8.8622 H   0  0  0  0  0  0  0  0  0  0  0  0
   -6.4196   14.2984   -8.7096 C   0  0  0  0  0  0  0  0  0  0  0  0
   -6.0088   13.6683   -7.7582 O   0  0  0  0  0  0  0  0  0  0  0  0
   -6.7946   13.6549   -9.8329 N   0  0  0  0  0  0  0  0  0  0  0  0
   -7.1869   14.4018  -11.0386 C   0  0  0  0  0  0  0  0  0  0  0  0
   -6.4008   13.8435  -12.2303 C   0  0  0  0  0  0  0  0  0  0  0  0
   -6.5668   12.4245  -12.2805 O   0  0  0  0  0  0  0  0  0  0  0  0
   -6.0548   11.7345  -11.1379 C   0  0  0  0  0  0  0  0  0  0  0  0
   -6.8177   12.1848   -9.8919 C   0  0  0  0  0  0  0  0  0  0  0  0
   -9.4512   18.0793   -8.1335 C   0  0  0  0  0  0  0  0  0  0  0  0
   -9.4993   19.0917   -7.0182 C   0  0  0  0  0  0  0  0  0  0  0  0
   -9.3056   20.4297   -7.2904 C   0  0  0  0  0  0  0  0  0  0  0  0
   -9.3500   21.3609   -6.2673 C   0  0  0  0  0  0  0  0  0  0  0  0
   -9.5882   20.9575   -4.9655 C   0  0  0  0  0  0  0  0  0  0  0  0
   -9.7833   19.6226   -4.6783 C   0  0  0  0  0  0  0  0  0  0  0  0
   -9.7461   18.6777   -5.7065 C   0  0  0  0  0  0  0  0  0  0  0  0
   -9.9544   17.2480   -5.4074 C   0  0  0  0  0  0  0  0  0  0  0  0
   -9.0116   16.5533   -5.0550 O   0  0  0  0  0  0  0  0  0  0  0  0
  -11.0698   16.7576   -5.5120 O   0  0  0  0  0  0  0  0  0  0  0  0
  -14.1307   16.9736   -8.5830 H   0  0  0  0  0  0  0  0  0  0  0  0
  2  1  1  0  0  0
  2  7  1  0  0  0
  2  9  1  0  0  0
  2  3  1  0  0  0
  9 10  2  0  0  0
  9 11  1  0  0  0
 11 16  1  0  0  0
 11 12  1  0  0  0
 12 13  1  0  0  0
 13 14  1  0  0  0
 14 15  1  0  0  0
 15 16  1  0  0  0
  3  4  1  0  0  0
  4 17  1  0  0  0
  4  5  1  0  0  0
 17 18  1  0  0  0
 18 23  1  0  0  0
 18 19  2  0  0  0
 19 20  1  0  0  0
 20 21  2  0  0  0
 21 22  1  0  0  0
 22 23  2  0  0  0
 23 24  1  0  0  0
 24 25  2  0  0  0
 24 26  1  0  0  0
  5  6  1  0  0  0
  6  7  1  0  0  0
  4  8  1  0  0  0
 26 27  1  0  0  0
M  CHG 1   4   1
M  END
> <minimizedAffinity>
-7.79140

$$$$
ZINC000025579942


 27 28  0  0  0  0  0  0  0  0999 V2000
   -5.9625   16.4206   -9.4536 N   0  0  0  0  0  0  0  0  0  0  0  0
  -11.7051   19.3008   -4.8603 H   0  0  0  0  0  0  0  0  0  0  0  0
   -5.9916   15.1588   -9.9705 C   0  0  0  0  0  0  0  0  0  0  0  0
   -5.7293   14.9417  -11.3271 C   0  0  0  0  0  0  0  0  0  0  0  0
   -5.7706   13.6100  -11.8206 C   0  0  0  0  0  0  0  0  0  0  0  0
   -5.5473   13.3818  -12.9957 O   0  0  0  0  0  0  0  0  0  0  0  0
   -6.0589   12.6020  -10.9737 N   0  0  0  0  0  0  0  0  0  0  0  0
   -6.1029   11.2264  -11.4759 C   0  0  0  0  0  0  0  0  0  0  0  0
   -6.3060   12.8416   -9.6746 C   0  0  0  0  0  0  0  0  0  0  0  0
   -6.5620   11.9089   -8.9383 O   0  0  0  0  0  0  0  0  0  0  0  0
   -6.2721   14.0864   -9.1679 N   0  0  0  0  0  0  0  0  0  0  0  0
   -6.5486   14.2979   -7.7449 C   0  0  0  0  0  0  0  0  0  0  0  0
   -5.4259   16.0366  -12.1988 C   0  0  0  0  0  0  0  0  0  0  0  0
   -5.1852   16.9052  -12.8903 N   0  0  0  0  0  0  0  0  0  0  0  0
   -8.5423   19.4443   -8.0516 N   0  0  0  0  0  0  0  0  0  0  0  0
   -8.4736   19.2575   -9.5058 C   0  0  0  0  0  0  0  0  0  0  0  0
   -7.1978   18.4933   -9.8661 C   0  0  0  0  0  0  0  0  0  0  0  0
   -7.2153   17.1270   -9.1746 C   0  0  0  0  0  0  0  0  0  0  0  0
   -7.3620   17.3321   -7.6641 C   0  0  0  0  0  0  0  0  0  0  0  0
   -8.6326   18.1387   -7.3869 C   0  0  0  0  0  0  0  0  0  0  0  0
  -11.8447   19.0676   -4.8968 H   0  0  0  0  0  0  0  0  0  0  0  0
   -9.7277   20.2451   -7.7178 C   0  0  0  0  0  0  0  0  0  0  0  0
   -8.7592   23.5691   -6.0840 C   0  0  0  0  0  0  0  0  0  0  0  0
   -9.1188   22.5562   -7.0795 N   0  0  0  0  0  0  0  0  0  0  0  0
   -9.3578   21.2872   -6.6937 C   0  0  0  0  0  0  0  0  0  0  0  0
   -9.2754   20.9837   -5.5224 O   0  0  0  0  0  0  0  0  0  0  0  0
  -11.5247   23.1921   -6.3347 H   0  0  0  0  0  0  0  0  0  0  0  0
 23 24  1  0  0  0
 24 25  1  0  0  0
 25 26  2  0  0  0
 25 22  1  0  0  0
 22 15  1  0  0  0
 15 20  1  0  0  0
 15 16  1  0  0  0
 16 17  1  0  0  0
 17 18  1  0  0  0
 18  1  1  0  0  0
 18 19  1  0  0  0
  1  3  1  0  0  0
  3 11  1  0  0  0
  3  4  2  0  0  0
  4 13  1  0  0  0
  4  5  1  0  0  0
 13 14  3  0  0  0
  5  6  2  0  0  0
  5  7  1  0  0  0
  7  8  1  0  0  0
  7  9  1  0  0  0
  9 10  2  0  0  0
  9 11  1  0  0  0
 11 12  1  0  0  0
 19 20  1  0  0  0
 24 27  1  0  0  0
 15 21  1  0  0  0
  1  2  1  0  0  0
M  CHG 1  15   1
M  END
> <minimizedAffinity>
-6.96267

$$$$
ZINC000952844774


 25 28  0  0  0  0  0  0  0  0999 V2000
   -7.1444   14.5452   -9.3924 C   0  0  0  0  0  0  0  0  0  0  0  0
   -5.8615   13.7885   -9.0114 C   0  0  0  0  0  0  0  0  0  0  0  0
   -6.1111   12.2828   -9.2618 C   0  0  0  0  0  0  0  0  0  0  0  0
   -5.7007   12.0603  -10.6230 O   0  0  0  0  0  0  0  0  0  0  0  0
   -5.2836   13.3337  -11.1489 C   0  0  0  0  0  0  0  0  0  0  0  0
   -4.8556   14.1285   -9.9979 O   0  0  0  0  0  0  0  0  0  0  0  0
   -6.5080   14.0190  -11.7754 C   0  0  0  0  0  0  0  0  0  0  0  0
   -7.6462   14.0144  -10.7401 C   0  0  0  0  0  0  0  0  0  0  0  0
   -8.0989   12.6747  -10.5348 O   0  0  0  0  0  0  0  0  0  0  0  0
   -5.5858   18.5273   -6.3838 H   0  0  0  0  0  0  0  0  0  0  0  0
   -6.1780   15.4077  -12.1053 N   0  0  0  0  0  0  0  0  0  0  0  0
   -7.0193   16.3466  -12.5720 C   0  0  0  0  0  0  0  0  0  0  0  0
   -6.3409   17.4528  -12.7388 N   0  0  0  0  0  0  0  0  0  0  0  0
   -5.0693   17.2598  -12.3908 C   0  0  0  0  0  0  0  0  0  0  0  0
   -4.9214   16.0242  -11.9910 N   0  0  0  0  0  0  0  0  0  0  0  0
   -6.8555   15.9813   -9.5044 N   0  0  0  0  0  0  0  0  0  0  0  0
   -8.3177   19.0309   -6.9758 H   0  0  0  0  0  0  0  0  0  0  0  0
   -9.3436   20.0388   -6.4704 C   0  0  0  0  0  0  0  0  0  0  0  0
   -8.4465   19.1581   -7.2305 N   0  0  0  0  0  0  0  0  0  0  0  0
   -8.9560   19.0064   -8.5987 C   0  0  0  0  0  0  0  0  0  0  0  0
   -7.9829   18.1559   -9.4179 C   0  0  0  0  0  0  0  0  0  0  0  0
   -7.8459   16.7766   -8.7667 C   0  0  0  0  0  0  0  0  0  0  0  0
   -7.3852   16.9512   -7.3166 C   0  0  0  0  0  0  0  0  0  0  0  0
   -8.3819   17.8457   -6.5762 C   0  0  0  0  0  0  0  0  0  0  0  0
   -8.3066   18.8711   -6.7886 H   0  0  0  0  0  0  0  0  0  0  0  0
 18 19  1  0  0  0
 19 24  1  0  0  0
 19 20  1  0  0  0
 20 21  1  0  0  0
 21 22  1  0  0  0
 22 16  1  0  0  0
 22 23  1  0  0  0
 16  1  1  0  0  0
  1  8  1  0  0  0
  1  2  1  0  0  0
  2  6  1  0  0  0
  2  3  1  0  0  0
  3  4  1  0  0  0
  4  5  1  0  0  0
  5  6  1  0  0  0
  5  7  1  0  0  0
  7 11  1  0  0  0
  7  8  1  0  0  0
 11 15  1  0  0  0
 11 12  1  0  0  0
 12 13  2  0  0  0
 13 14  1  0  0  0
 14 15  2  0  0  0
  8  9  1  0  0  0
 23 24  1  0  0  0
 19 25  1  0  0  0
 16 17  1  0  0  0
  9 10  1  0  0  0
M  CHG 1  19   1
M  END
> <minimizedAffinity>
-7.00838

$$$$
ZINC000005156720


 30 33  0  0  0  0  0  0  0  0999 V2000
   -7.9102   15.5844   -9.7403 C   0  0  0  0  0  0  0  0  0  0  0  0
   -7.6426   14.0795   -9.7595 C   0  0  0  0  0  0  0  0  0  0  0  0
   -7.9112   13.5136  -11.1542 C   0  0  0  0  0  0  0  0  0  0  0  0
   -7.6478   12.0056  -11.1452 C   0  0  0  0  0  0  0  0  0  0  0  0
   -6.1943   11.7380  -10.7515 C   0  0  0  0  0  0  0  0  0  0  0  0
   -5.9211   12.3179   -9.3613 C   0  0  0  0  0  0  0  0  0  0  0  0
   -6.1788   13.8247   -9.3876 C   0  0  0  0  0  0  0  0  0  0  0  0
   -5.3251   14.4375  -10.3559 O   0  0  0  0  0  0  0  0  0  0  0  0
   -5.9057   14.4300   -8.0093 C   0  0  0  0  0  0  0  0  0  0  0  0
   -6.2395   15.9238   -8.0455 C   0  0  0  0  0  0  0  0  0  0  0  0
   -7.6509   16.1089   -8.3931 N   0  0  0  0  0  0  0  0  0  0  0  0
   -8.4402   15.6343  -12.5190 H   0  0  0  0  0  0  0  0  0  0  0  0
   -8.4402   15.6343  -12.5190 H   0  0  0  0  0  0  0  0  0  0  0  0
   -6.7725   17.6338  -10.6314 C   0  0  0  0  0  0  0  0  0  0  0  0
   -5.9365   18.2611  -11.5435 C   0  0  0  0  0  0  0  0  0  0  0  0
   -5.3394   17.5268  -12.5501 C   0  0  0  0  0  0  0  0  0  0  0  0
   -5.5747   16.1681  -12.6490 C   0  0  0  0  0  0  0  0  0  0  0  0
   -6.4081   15.5405  -11.7412 C   0  0  0  0  0  0  0  0  0  0  0  0
   -7.0026   16.2690  -10.7295 C   0  0  0  0  0  0  0  0  0  0  0  0
   -8.3138   19.3428  -10.0347 C   0  0  0  0  0  0  0  0  0  0  0  0
   -7.3607   18.3539   -9.6402 O   0  0  0  0  0  0  0  0  0  0  0  0
   -8.4896   15.3941   -7.4217 C   0  0  0  0  0  0  0  0  0  0  0  0
   -9.4730   16.3547   -6.8042 C   0  0  0  0  0  0  0  0  0  0  0  0
   -9.9084   17.2797   -7.4567 O   0  0  0  0  0  0  0  0  0  0  0  0
   -9.8686   16.1858   -5.5270 N   0  0  0  0  0  0  0  0  0  0  0  0
   -9.3496   15.0748   -4.7137 C   0  0  0  0  0  0  0  0  0  0  0  0
   -8.8441   15.6443   -3.3833 C   0  0  0  0  0  0  0  0  0  0  0  0
   -9.8741   16.4384   -2.7896 O   0  0  0  0  0  0  0  0  0  0  0  0
  -10.2543   17.5780   -3.5645 C   0  0  0  0  0  0  0  0  0  0  0  0
  -10.8277   17.1109   -4.9024 C   0  0  0  0  0  0  0  0  0  0  0  0
 20 21  1  0  0  0
 21 14  1  0  0  0
 14 19  2  0  0  0
 14 15  1  0  0  0
 15 16  2  0  0  0
 16 17  1  0  0  0
 17 18  2  0  0  0
 18 19  1  0  0  0
 19  1  1  0  0  0
  1 11  1  0  0  0
  1  2  1  0  0  0
  2  7  1  0  0  0
  2  3  1  0  0  0
  3  4  1  0  0  0
  4  5  1  0  0  0
  5  6  1  0  0  0
  6  7  1  0  0  0
  7  8  1  0  0  0
  7  9  1  0  0  0
  9 10  1  0  0  0
 10 11  1  0  0  0
 11 22  1  0  0  0
 22 23  1  0  0  0
 23 24  2  0  0  0
 23 25  1  0  0  0
 25 30  1  0  0  0
 25 26  1  0  0  0
 26 27  1  0  0  0
 27 28  1  0  0  0
 28 29  1  0  0  0
 29 30  1  0  0  0
  8 12  1  0  0  0
 11 13  1  0  0  0
M  CHG 1  11   1
M  END
> <minimizedAffinity>
-8.09153

$$$$
ZINC000514289662


 29 31  0  0  0  0  0  0  0  0999 V2000
   -7.7463   17.2968   -8.9912 C   0  0  0  0  0  0  0  0  0  0  0  0
   -7.9682   18.6885   -9.2746 O   0  0  0  0  0  0  0  0  0  0  0  0
   -9.2655   19.0261   -8.7383 C   0  0  0  0  0  0  0  0  0  0  0  0
   -9.3092   18.2632   -7.3899 C   0  0  0  0  0  0  0  0  0  0  0  0
   -8.5722   16.9434   -7.7392 C   0  0  0  0  0  0  0  0  0  0  0  0
   -9.5125   15.9069   -8.0283 O   0  0  0  0  0  0  0  0  0  0  0  0
   -3.1849   20.6520  -10.7259 H   0  0  0  0  0  0  0  0  0  0  0  0
   -8.5949   19.0034   -6.3470 N   0  0  0  0  0  0  0  0  0  0  0  0
   -4.6467   22.5983  -11.1061 H   0  0  0  0  0  0  0  0  0  0  0  0
   -9.4161   19.5756   -5.0276 S   0  0  0  0  0  0  0  0  0  0  0  0
  -10.7013   18.9705   -5.0614 O   0  0  0  0  0  0  0  0  0  0  0  0
   -8.5308   19.4587   -3.9222 O   0  0  0  0  0  0  0  0  0  0  0  0
   -9.6714   21.3006   -5.2801 C   0  0  0  0  0  0  0  0  0  0  0  0
  -10.1587   22.1004   -4.3302 C   0  0  0  0  0  0  0  0  0  0  0  0
  -10.2729   23.7445   -4.9448 S   0  0  0  0  0  0  0  0  0  0  0  0
   -9.6336   23.2382   -6.5031 C   0  0  0  0  0  0  0  0  0  0  0  0
   -9.3762   21.9296   -6.4773 C   0  0  0  0  0  0  0  0  0  0  0  0
   -6.2605   17.0514   -8.7206 C   0  0  0  0  0  0  0  0  0  0  0  0
   -7.8976   12.0583  -11.9334 C   0  0  0  0  0  0  0  0  0  0  0  0
   -6.9940   12.3948  -10.7751 C   0  0  0  0  0  0  0  0  0  0  0  0
   -7.1175   11.8098   -9.7200 O   0  0  0  0  0  0  0  0  0  0  0  0
   -6.0486   13.3457  -10.9119 N   0  0  0  0  0  0  0  0  0  0  0  0
   -5.9251   14.0456  -12.2065 C   0  0  0  0  0  0  0  0  0  0  0  0
   -5.6857   15.5524  -12.0005 C   0  0  0  0  0  0  0  0  0  0  0  0
   -6.5420   16.0462  -10.8555 C   0  0  0  0  0  0  0  0  0  0  0  0
   -5.7669   15.9982   -9.6179 N   0  0  0  0  0  0  0  0  0  0  0  0
   -5.8225   14.7669   -8.9278 C   0  0  0  0  0  0  0  0  0  0  0  0
   -5.1943   13.6484   -9.7823 C   0  0  0  0  0  0  0  0  0  0  0  0
   -2.4937   13.6064   -9.3441 H   0  0  0  0  0  0  0  0  0  0  0  0
 19 20  1  0  0  0
 20 21  2  0  0  0
 20 22  1  0  0  0
 22 28  1  0  0  0
 22 23  1  0  0  0
 23 24  1  0  0  0
 24 25  1  0  0  0
 25 26  1  0  0  0
 26 18  1  0  0  0
 26 27  1  0  0  0
 18  1  1  0  0  0
  1  5  1  0  0  0
  1  2  1  0  0  0
  2  3  1  0  0  0
  3  4  1  0  0  0
  4  8  1  0  0  0
  4  5  1  0  0  0
  8 10  1  0  0  0
 10 11  2  0  0  0
 10 12  2  0  0  0
 10 13  1  0  0  0
 13 17  1  0  0  0
 13 14  2  0  0  0
 14 15  1  0  0  0
 15 16  1  0  0  0
 16 17  2  0  0  0
  5  6  1  0  0  0
 27 28  1  0  0  0
 26 29  1  0  0  0
  8  9  1  0  0  0
  6  7  1  0  0  0
M  CHG 1  26   1
M  END
> <minimizedAffinity>
-7.23132

$$$$
ZINC000104102256


 39 40  0  0  0  0  0  0  0  0999 V2000
   -9.3129   16.1586   -6.2920 C   0  0  0  0  0  0  0  0  0  0  0  0
   -9.4928   15.8034   -4.8147 C   0  0  0  0  0  0  0  0  0  0  0  0
   -9.6817   14.3930   -4.6835 O   0  0  0  0  0  0  0  0  0  0  0  0
  -10.1450   18.6156   -1.2800 H   0  0  0  0  0  0  0  0  0  0  0  0
  -10.7371   16.8828   -2.9652 C   0  0  0  0  0  0  0  0  0  0  0  0
   -9.6435   16.6965   -2.1740 O   0  0  0  0  0  0  0  0  0  0  0  0
  -10.6977   16.5246   -4.2678 C   0  0  0  0  0  0  0  0  0  0  0  0
  -11.7368   16.8127   -5.0784 O   0  0  0  0  0  0  0  0  0  0  0  0
  -10.8860   16.8618   -0.5996 H   0  0  0  0  0  0  0  0  0  0  0  0
  -10.8860   16.8618   -0.5996 H   0  0  0  0  0  0  0  0  0  0  0  0
  -12.7956   16.7296   -2.0093 O   0  0  0  0  0  0  0  0  0  0  0  0
  -11.9094   17.4490   -2.4253 C   0  0  0  0  0  0  0  0  0  0  0  0
   -8.4492   15.1588   -6.9344 N   0  0  0  0  0  0  0  0  0  0  0  0
  -11.2326   16.4748   -0.9944 H   0  0  0  0  0  0  0  0  0  0  0  0
   -8.9315   14.8134   -8.1648 N   0  0  0  0  0  0  0  0  0  0  0  0
  -10.4285   14.0754   -0.6359 H   0  0  0  0  0  0  0  0  0  0  0  0
   -8.0493   14.4408   -9.1814 C   0  0  0  0  0  0  0  0  0  0  0  0
   -8.5309   14.1661  -10.4551 C   0  0  0  0  0  0  0  0  0  0  0  0
   -7.6557   13.7979  -11.4579 C   0  0  0  0  0  0  0  0  0  0  0  0
   -6.3013   13.7027  -11.1954 C   0  0  0  0  0  0  0  0  0  0  0  0
   -5.8186   13.9754   -9.9286 C   0  0  0  0  0  0  0  0  0  0  0  0
   -6.6875   14.3497   -8.9226 C   0  0  0  0  0  0  0  0  0  0  0  0
   -5.3664   13.3082  -12.2729 N   0  0  0  0  0  0  0  0  0  0  0  0
   -5.5236   13.7358  -13.4024 O   0  0  0  0  0  0  0  0  0  0  0  0
   -4.4397   12.5561  -12.0298 O   0  0  0  0  0  0  0  0  0  0  0  0
   -8.6675   17.5408   -6.4092 C   0  0  0  0  0  0  0  0  0  0  0  0
   -9.3072   18.2891   -7.4996 N   0  0  0  0  0  0  0  0  0  0  0  0
   -4.9782   16.5276   -2.6840 H   0  0  0  0  0  0  0  0  0  0  0  0
   -8.4291   19.1634   -8.0743 N   0  0  0  0  0  0  0  0  0  0  0  0
  -10.0113   22.0436   -1.9823 H   0  0  0  0  0  0  0  0  0  0  0  0
   -7.9889   18.9523   -9.3830 C   0  0  0  0  0  0  0  0  0  0  0  0
   -7.0910   17.9289   -9.6587 C   0  0  0  0  0  0  0  0  0  0  0  0
   -6.6577   17.7229  -10.9538 C   0  0  0  0  0  0  0  0  0  0  0  0
   -7.1168   18.5340  -11.9754 C   0  0  0  0  0  0  0  0  0  0  0  0
   -8.0107   19.5537  -11.7043 C   0  0  0  0  0  0  0  0  0  0  0  0
   -8.4525   19.7615  -10.4125 C   0  0  0  0  0  0  0  0  0  0  0  0
   -6.6507   18.3099  -13.3622 N   0  0  0  0  0  0  0  0  0  0  0  0
   -6.8146   19.1723  -14.2066 O   0  0  0  0  0  0  0  0  0  0  0  0
   -6.1030   17.2632  -13.6589 O   0  0  0  0  0  0  0  0  0  0  0  0
 11 12  2  0  0  0
 12  5  1  0  0  0
  5  6  1  0  0  0
  5  7  2  0  0  0
  7  8  1  0  0  0
  7  2  1  0  0  0
  2  3  1  0  0  0
  2  1  1  0  0  0
  1 26  1  0  0  0
  1 13  1  0  0  0
 26 27  1  0  0  0
 27 29  1  0  0  0
 29 31  1  0  0  0
 31 36  1  0  0  0
 31 32  2  0  0  0
 32 33  1  0  0  0
 33 34  2  0  0  0
 34 37  1  0  0  0
 34 35  1  0  0  0
 37 38  1  0  0  0
 37 39  2  0  0  0
 35 36  2  0  0  0
 13 15  1  0  0  0
 15 17  1  0  0  0
 17 22  1  0  0  0
 17 18  2  0  0  0
 18 19  1  0  0  0
 19 20  2  0  0  0
 20 23  1  0  0  0
 20 21  1  0  0  0
 23 24  1  0  0  0
 23 25  2  0  0  0
 21 22  2  0  0  0
  6  9  1  0  0  0
  8 10  1  0  0  0
  3  4  1  0  0  0
 27 28  1  0  0  0
 29 30  1  0  0  0
 13 14  1  0  0  0
 15 16  1  0  0  0
M  CHG 1  23   1
M  CHG 1  24  -1
M  CHG 1  37   1
M  CHG 1  38  -1
M  END
> <minimizedAffinity>
-8.31027

$$$$
ZINC000005050532


 25 28  0  0  0  0  0  0  0  0999 V2000
   -7.3433   19.2519  -13.4288 C   0  0  0  0  0  0  0  0  0  0  0  0
   -6.6373   18.1909  -12.5821 C   0  0  0  0  0  0  0  0  0  0  0  0
   -5.1045   18.0215  -12.7696 C   0  0  0  0  0  0  0  0  0  0  0  0
   -4.8248   16.8449  -12.2282 C   0  0  0  0  0  0  0  0  0  0  0  0
   -6.1208   16.1817  -11.7820 C   0  0  0  0  0  0  0  0  0  0  0  0
   -7.0087   16.7868  -12.8273 O   0  0  0  0  0  0  0  0  0  0  0  0
   -6.7909   16.8312  -10.6468 C   0  0  0  0  0  0  0  0  0  0  0  0
   -6.9902   16.9396   -9.2303 C   0  0  0  0  0  0  0  0  0  0  0  0
   -6.5382   16.2383   -8.3509 O   0  0  0  0  0  0  0  0  0  0  0  0
   -7.8213   18.0366   -9.1103 N   0  0  0  0  0  0  0  0  0  0  0  0
   -7.9038   18.7583  -10.2811 C   0  0  0  0  0  0  0  0  0  0  0  0
   -8.7742   19.5280  -10.6266 O   0  0  0  0  0  0  0  0  0  0  0  0
   -6.6772   18.3820  -11.0481 C   0  0  0  0  0  0  0  0  0  0  0  0
   -8.5026   18.3762   -7.9329 C   0  0  0  0  0  0  0  0  0  0  0  0
   -8.4852   19.6855   -7.4724 C   0  0  0  0  0  0  0  0  0  0  0  0
   -9.1574   20.0171   -6.3120 C   0  0  0  0  0  0  0  0  0  0  0  0
   -9.8470   19.0463   -5.6094 C   0  0  0  0  0  0  0  0  0  0  0  0
   -9.8660   17.7409   -6.0657 C   0  0  0  0  0  0  0  0  0  0  0  0
   -9.2007   17.4046   -7.2283 C   0  0  0  0  0  0  0  0  0  0  0  0
  -10.6053   16.7045   -5.3108 N   0  0  0  0  0  0  0  0  0  0  0  0
  -11.7808   16.8716   -5.0386 O   0  0  0  0  0  0  0  0  0  0  0  0
  -10.0385   15.6846   -4.9617 O   0  0  0  0  0  0  0  0  0  0  0  0
   -6.0757   14.6536  -11.7198 C   0  0  0  0  0  0  0  0  0  0  0  0
   -5.4615   14.1465  -12.9063 O   0  0  0  0  0  0  0  0  0  0  0  0
   -6.5393   18.1964  -12.6371 H   0  0  0  0  0  0  0  0  0  0  0  0
  2  1  1  0  0  0
  2  6  1  0  0  0
  2 13  1  0  0  0
  2  3  1  0  0  0
  3  4  2  0  0  0
  4  5  1  0  0  0
  5 23  1  0  0  0
  5  6  1  0  0  0
  5  7  1  0  0  0
 23 24  1  0  0  0
  7 13  1  0  0  0
  7  8  1  0  0  0
  8  9  2  0  0  0
  8 10  1  0  0  0
 10 14  1  0  0  0
 10 11  1  0  0  0
 14 19  1  0  0  0
 14 15  2  0  0  0
 15 16  1  0  0  0
 16 17  2  0  0  0
 17 18  1  0  0  0
 18 20  1  0  0  0
 18 19  2  0  0  0
 20 21  1  0  0  0
 20 22  2  0  0  0
 11 12  2  0  0  0
 11 13  1  0  0  0
 24 25  1  0  0  0
M  CHG 1  20   1
M  CHG 1  21  -1
M  END
> <minimizedAffinity>
-8.86480

$$$$
ZINC000107771430


 23 25  0  0  0  0  0  0  0  0999 V2000
   -7.8055   13.4989  -10.8840 N   0  0  0  0  0  0  0  0  0  0  0  0
   -7.3547   13.0866  -12.2177 C   0  0  0  0  0  0  0  0  0  0  0  0
   -6.1049   13.8773  -12.6162 C   0  0  0  0  0  0  0  0  0  0  0  0
   -6.4434   15.3684  -12.6192 C   0  0  0  0  0  0  0  0  0  0  0  0
   -5.2899   16.1484  -12.9293 O   0  0  0  0  0  0  0  0  0  0  0  0
   -5.5495   17.5540  -12.9893 C   0  0  0  0  0  0  0  0  0  0  0  0
   -6.0603   18.0465  -11.6338 C   0  0  0  0  0  0  0  0  0  0  0  0
   -7.3083   17.2495  -11.2360 C   0  0  0  0  0  0  0  0  0  0  0  0
   -6.9515   15.7620  -11.2278 C   0  0  0  0  0  0  0  0  0  0  0  0
   -8.1781   14.9201  -10.8932 C   0  0  0  0  0  0  0  0  0  0  0  0
   -6.4208   11.7805   -9.8091 H   0  0  0  0  0  0  0  0  0  0  0  0
   -6.7207   13.2866   -9.9166 C   0  0  0  0  0  0  0  0  0  0  0  0
   -5.4189   11.2209   -9.9304 C   0  0  0  0  0  0  0  0  0  0  0  0
   -6.5573   11.8103   -9.6609 C   0  0  0  0  0  0  0  0  0  0  0  0
   -5.8578   15.5055  -10.1891 C   0  0  0  0  0  0  0  0  0  0  0  0
   -5.8902   16.5354   -9.1990 O   0  0  0  0  0  0  0  0  0  0  0  0
   -5.8976   16.0497   -7.8551 C   0  0  0  0  0  0  0  0  0  0  0  0
   -7.1753   16.5129   -7.1524 C   0  0  0  0  0  0  0  0  0  0  0  0
   -7.6480   17.8338   -7.7671 C   0  0  0  0  0  0  0  0  0  0  0  0
   -8.9682   18.2488   -7.1123 C   0  0  0  0  0  0  0  0  0  0  0  0
   -9.9337   17.2104   -7.2903 O   0  0  0  0  0  0  0  0  0  0  0  0
   -9.5668   15.9642   -6.6949 C   0  0  0  0  0  0  0  0  0  0  0  0
   -8.2707   15.4575   -7.3329 C   0  0  0  0  0  0  0  0  0  0  0  0
 13 14  2  0  0  0
 14 12  1  0  0  0
 12  1  1  0  0  0
  1 10  1  0  0  0
  1  2  1  0  0  0
  2  3  1  0  0  0
  3  4  1  0  0  0
  4  9  1  0  0  0
  4  5  1  0  0  0
  5  6  1  0  0  0
  6  7  1  0  0  0
  7  8  1  0  0  0
  8  9  1  0  0  0
  9 15  1  0  0  0
  9 10  1  0  0  0
 15 16  1  0  0  0
 16 17  1  0  0  0
 17 18  1  0  0  0
 18 23  1  0  0  0
 18 19  1  0  0  0
 19 20  1  0  0  0
 20 21  1  0  0  0
 21 22  1  0  0  0
 22 23  1  0  0  0
  1 11  1  0  0  0
M  CHG 1   1   1
M  END
> <minimizedAffinity>
-6.25429

$$$$
ZINC000072310867


 29 31  0  0  0  0  0  0  0  0999 V2000
   -7.6900   16.7257   -6.9101 N   0  0  0  0  0  0  0  0  0  0  0  0
   -7.3198   15.7040   -7.7071 C   0  0  0  0  0  0  0  0  0  0  0  0
   -8.0855   14.7860   -7.9116 O   0  0  0  0  0  0  0  0  0  0  0  0
  -10.1099   21.6052   -3.0878 H   0  0  0  0  0  0  0  0  0  0  0  0
   -5.9540   15.7020   -8.3443 C   0  0  0  0  0  0  0  0  0  0  0  0
   -5.2044   14.4224   -7.9089 C   0  0  0  0  0  0  0  0  0  0  0  0
   -5.4950   13.3224   -9.3577 S   0  0  0  0  0  0  0  0  0  0  0  0
   -5.5130   14.7098  -10.5672 C   0  0  0  0  0  0  0  0  0  0  0  0
   -6.1108   15.8072   -9.7870 N   0  0  0  0  0  0  0  0  0  0  0  0
   -6.7555   16.8388  -10.3671 C   0  0  0  0  0  0  0  0  0  0  0  0
   -7.2316   17.7189   -9.6818 O   0  0  0  0  0  0  0  0  0  0  0  0
   -6.8849   16.8986  -11.8673 C   0  0  0  0  0  0  0  0  0  0  0  0
   -6.8324   18.3274  -12.4338 C   0  0  0  0  0  0  0  0  0  0  0  0
   -5.3069   18.1532  -12.5190 C   0  0  0  0  0  0  0  0  0  0  0  0
   -5.5637   16.6397  -12.6104 C   0  0  0  0  0  0  0  0  0  0  0  0
   -9.1907   16.7278   -6.2099 S   0  0  0  0  0  0  0  0  0  0  0  0
   -9.0646   16.0130   -4.9883 O   0  0  0  0  0  0  0  0  0  0  0  0
  -10.1104   16.3656   -7.2308 O   0  0  0  0  0  0  0  0  0  0  0  0
  -10.1429   21.0116   -5.0922 C   0  0  0  0  0  0  0  0  0  0  0  0
   -9.1376   20.7397   -6.0086 C   0  0  0  0  0  0  0  0  0  0  0  0
   -8.8490   19.4318   -6.3479 C   0  0  0  0  0  0  0  0  0  0  0  0
   -9.5611   18.3946   -5.7750 C   0  0  0  0  0  0  0  0  0  0  0  0
  -10.5635   18.6631   -4.8609 C   0  0  0  0  0  0  0  0  0  0  0  0
  -10.8527   19.9685   -4.5147 C   0  0  0  0  0  0  0  0  0  0  0  0
  -11.3237   17.5502   -4.2491 N   0  0  0  0  0  0  0  0  0  0  0  0
  -11.0483   17.1701   -3.1252 O   0  0  0  0  0  0  0  0  0  0  0  0
  -12.2246   17.0146   -4.8695 O   0  0  0  0  0  0  0  0  0  0  0  0
  -10.4825   23.2490   -5.8210 C   0  0  0  0  0  0  0  0  0  0  0  0
  -10.4283   22.2972   -4.7564 O   0  0  0  0  0  0  0  0  0  0  0  0
 28 29  1  0  0  0
 29 19  1  0  0  0
 19 24  2  0  0  0
 19 20  1  0  0  0
 20 21  2  0  0  0
 21 22  1  0  0  0
 22 16  1  0  0  0
 22 23  2  0  0  0
 16 17  2  0  0  0
 16 18  2  0  0  0
 16  1  1  0  0  0
  1  2  1  0  0  0
  2  3  2  0  0  0
  2  5  1  0  0  0
  5  9  1  0  0  0
  5  6  1  0  0  0
  6  7  1  0  0  0
  7  8  1  0  0  0
  8  9  1  0  0  0
  9 10  1  0  0  0
 10 11  2  0  0  0
 10 12  1  0  0  0
 12 15  1  0  0  0
 12 13  1  0  0  0
 13 14  1  0  0  0
 14 15  1  0  0  0
 23 25  1  0  0  0
 23 24  1  0  0  0
 25 26  1  0  0  0
 25 27  2  0  0  0
  1  4  1  0  0  0
M  CHG 1  25   1
M  CHG 1  26  -1
M  END
> <minimizedAffinity>
-8.06750

$$$$
ZINC000022697129


 30 31  0  0  0  0  0  0  0  0999 V2000
   -8.1200   17.4037   -8.8896 C   0  0  0  0  0  0  0  0  0  0  0  0
   -8.6033   18.6093   -8.1254 C   0  0  0  0  0  0  0  0  0  0  0  0
   -8.9254   19.7624   -8.7803 C   0  0  0  0  0  0  0  0  0  0  0  0
   -8.7985   19.8363  -10.2801 C   0  0  0  0  0  0  0  0  0  0  0  0
   -9.3519   20.8217   -8.0964 N   0  0  0  0  0  0  0  0  0  0  0  0
   -9.4737   20.7876   -6.7843 C   0  0  0  0  0  0  0  0  0  0  0  0
   -9.1678   19.6657   -6.0783 N   0  0  0  0  0  0  0  0  0  0  0  0
   -8.7355   18.5627   -6.7262 C   0  0  0  0  0  0  0  0  0  0  0  0
   -8.4568   17.5480   -6.1088 O   0  0  0  0  0  0  0  0  0  0  0  0
   -0.5788   12.6431  -13.3361 H   0  0  0  0  0  0  0  0  0  0  0  0
   -9.9161   21.9002   -6.1206 N   0  0  0  0  0  0  0  0  0  0  0  0
  -11.0473   21.8230   -5.1826 C   0  0  0  0  0  0  0  0  0  0  0  0
  -10.6285   22.4843   -3.8646 C   0  0  0  0  0  0  0  0  0  0  0  0
  -10.1166   23.7914   -4.1356 O   0  0  0  0  0  0  0  0  0  0  0  0
   -8.9417   23.8025   -4.9500 C   0  0  0  0  0  0  0  0  0  0  0  0
   -9.2705   23.2076   -6.3194 C   0  0  0  0  0  0  0  0  0  0  0  0
   -6.5905   17.4050   -8.9298 C   0  0  0  0  0  0  0  0  0  0  0  0
   -5.5290   15.8206  -10.5052 N   0  0  0  0  0  0  0  0  0  0  0  0
   -6.1239   17.0139  -10.3084 C   0  0  0  0  0  0  0  0  0  0  0  0
   -6.2838   17.7729  -11.2407 O   0  0  0  0  0  0  0  0  0  0  0  0
   -1.8294   12.6618  -14.6877 H   0  0  0  0  0  0  0  0  0  0  0  0
   -5.0754   15.4404  -11.8454 C   0  0  0  0  0  0  0  0  0  0  0  0
   -7.0170   13.9168  -11.6800 N   0  0  0  0  0  0  0  0  0  0  0  0
   -5.9106   14.2927  -12.3515 C   0  0  0  0  0  0  0  0  0  0  0  0
   -5.5870   13.7072  -13.3631 O   0  0  0  0  0  0  0  0  0  0  0  0
   -9.8779   13.7238  -11.2742 H   0  0  0  0  0  0  0  0  0  0  0  0
   -7.8289   12.8010  -12.1720 C   0  0  0  0  0  0  0  0  0  0  0  0
   -7.5948   11.5725  -11.2906 C   0  0  0  0  0  0  0  0  0  0  0  0
   -5.3836   10.6870  -11.0222 C   0  0  0  0  0  0  0  0  0  0  0  0
   -6.5457   10.7788  -11.8488 O   0  0  0  0  0  0  0  0  0  0  0  0
 29 30  1  0  0  0
 30 28  1  0  0  0
 28 27  1  0  0  0
 27 23  1  0  0  0
 23 24  1  0  0  0
 24 25  2  0  0  0
 24 22  1  0  0  0
 22 18  1  0  0  0
 18 19  1  0  0  0
 19 20  2  0  0  0
 19 17  1  0  0  0
 17  1  1  0  0  0
  1  2  1  0  0  0
  2  8  1  0  0  0
  2  3  2  0  0  0
  3  4  1  0  0  0
  3  5  1  0  0  0
  5  6  2  0  0  0
  6 11  1  0  0  0
  6  7  1  0  0  0
 11 16  1  0  0  0
 11 12  1  0  0  0
 12 13  1  0  0  0
 13 14  1  0  0  0
 14 15  1  0  0  0
 15 16  1  0  0  0
  7  8  1  0  0  0
  8  9  2  0  0  0
 23 26  1  0  0  0
 18 21  1  0  0  0
  7 10  1  0  0  0
M  END
> <minimizedAffinity>
-7.27050

$$$$
ZINC000003870890


 37 36  0  0  0  0  0  0  0  0999 V2000
   -8.0935   17.8853   -8.2699 C   0  0  0  0  0  0  0  0  0  0  0  0
   -6.7024   16.0700   -9.1109 C   0  0  0  0  0  0  0  0  0  0  0  0
   -6.0102   16.1783   -8.1209 O   0  0  0  0  0  0  0  0  0  0  0  0
   -7.7986   16.8410   -9.2543 N   0  0  0  0  0  0  0  0  0  0  0  0
   -5.3537   16.0815  -12.7599 H   0  0  0  0  0  0  0  0  0  0  0  0
   -6.3368   15.0737  -10.1808 C   0  0  0  0  0  0  0  0  0  0  0  0
   -5.3235   15.7030  -11.1390 C   0  0  0  0  0  0  0  0  0  0  0  0
   -7.4084   15.3782  -12.4769 C   0  0  0  0  0  0  0  0  0  0  0  0
   -5.9860   15.9413  -12.4974 C   0  0  0  0  0  0  0  0  0  0  0  0
   -6.0361   17.4433  -12.7840 C   0  0  0  0  0  0  0  0  0  0  0  0
   -5.7224   13.8316   -9.5324 C   0  0  0  0  0  0  0  0  0  0  0  0
   -6.5861   12.6322   -9.8263 C   0  0  0  0  0  0  0  0  0  0  0  0
   -7.1374   12.0450   -8.9197 O   0  0  0  0  0  0  0  0  0  0  0  0
   -6.7460   12.2120  -11.0970 N   0  0  0  0  0  0  0  0  0  0  0  0
   -7.5575   11.0850  -11.3733 O   0  0  0  0  0  0  0  0  0  0  0  0
   -8.3615   14.1723   -6.6820 H   0  0  0  0  0  0  0  0  0  0  0  0
   -8.3615   14.1723   -6.6820 H   0  0  0  0  0  0  0  0  0  0  0  0
   -9.2131   17.4269   -7.3714 C   0  0  0  0  0  0  0  0  0  0  0  0
  -10.0625   16.6731   -7.7971 O   0  0  0  0  0  0  0  0  0  0  0  0
   -9.2704   17.8544   -6.0945 N   0  0  0  0  0  0  0  0  0  0  0  0
   -7.6442   16.3400  -13.5925 H   0  0  0  0  0  0  0  0  0  0  0  0
  -10.2996   17.3317   -5.1925 C   0  0  0  0  0  0  0  0  0  0  0  0
   -9.7425   16.1317   -4.4240 C   0  0  0  0  0  0  0  0  0  0  0  0
  -10.7070   18.4069   -4.2183 C   0  0  0  0  0  0  0  0  0  0  0  0
  -11.7966   18.3631   -3.6875 O   0  0  0  0  0  0  0  0  0  0  0  0
   -9.8606   19.4174   -3.9372 N   0  0  0  0  0  0  0  0  0  0  0  0
  -11.4072    8.8316   -7.4547 H   0  0  0  0  0  0  0  0  0  0  0  0
  -10.2568   20.4626   -2.9902 C   0  0  0  0  0  0  0  0  0  0  0  0
  -10.5707   21.7505   -3.7542 C   0  0  0  0  0  0  0  0  0  0  0  0
   -9.6573   21.8764   -4.8979 N   0  0  0  0  0  0  0  0  0  0  0  0
  -16.0882   13.4125    5.5436 H   0  0  0  0  0  0  0  0  0  0  0  0
  -16.0882   13.4125    5.5436 H   0  0  0  0  0  0  0  0  0  0  0  0
  -16.0882   13.4125    5.5436 H   0  0  0  0  0  0  0  0  0  0  0  0
   -8.5131   19.1655   -8.9950 C   0  0  0  0  0  0  0  0  0  0  0  0
   -8.6998   20.2912   -7.9757 C   0  0  0  0  0  0  0  0  0  0  0  0
   -7.4289   19.5615   -9.9993 C   0  0  0  0  0  0  0  0  0  0  0  0
   -9.8302   18.9241   -9.7352 C   0  0  0  0  0  0  0  0  0  0  0  0
  8  9  1  0  0  0
  9 10  1  0  0  0
  9  7  1  0  0  0
  7  6  1  0  0  0
  6 11  1  0  0  0
  6  2  1  0  0  0
 11 12  1  0  0  0
 12 13  2  0  0  0
 12 14  1  0  0  0
 14 15  1  0  0  0
  2  3  2  0  0  0
  2  4  1  0  0  0
  4  1  1  0  0  0
  1 18  1  0  0  0
  1 34  1  0  0  0
 18 19  2  0  0  0
 18 20  1  0  0  0
 20 22  1  0  0  0
 22 23  1  0  0  0
 22 24  1  0  0  0
 24 25  2  0  0  0
 24 26  1  0  0  0
 26 28  1  0  0  0
 28 29  1  0  0  0
 29 30  1  0  0  0
 34 35  1  0  0  0
 34 36  1  0  0  0
 34 37  1  0  0  0
 14 16  1  0  0  0
 15 17  1  0  0  0
  4  5  1  0  0  0
 20 21  1  0  0  0
 26 27  1  0  0  0
 30 31  1  0  0  0
 30 32  1  0  0  0
 30 33  1  0  0  0
M  CHG 1  30   1
M  END
> <minimizedAffinity>
-6.62164

$$$$
ZINC000108532103


 24 26  0  0  0  0  0  0  0  0999 V2000
   -5.0292   14.3471  -10.9959 C   0  0  0  0  0  0  0  0  0  0  0  0
   -5.1030   12.9423  -11.6345 C   0  0  0  0  0  0  0  0  0  0  0  0
   -5.7092   12.0501  -10.5220 C   0  0  0  0  0  0  0  0  0  0  0  0
   -6.7496   12.9877   -9.8561 C   0  0  0  0  0  0  0  0  0  0  0  0
   -6.0738   14.3667   -9.8774 C   0  0  0  0  0  0  0  0  0  0  0  0
   -5.4259   14.6767   -8.5213 C   0  0  0  0  0  0  0  0  0  0  0  0
   -6.1241   15.9683   -8.0375 C   0  0  0  0  0  0  0  0  0  0  0  0
   -7.4290   15.9786   -8.7490 N   0  0  0  0  0  0  0  0  0  0  0  0
   -7.1096   15.4760  -10.1122 C   0  0  0  0  0  0  0  0  0  0  0  0
   -4.5153   15.6162  -13.0592 H   0  0  0  0  0  0  0  0  0  0  0  0
   -5.2267   17.6884  -12.8540 C   0  0  0  0  0  0  0  0  0  0  0  0
   -4.9133   16.6640  -11.8545 N   0  0  0  0  0  0  0  0  0  0  0  0
   -5.3515   15.4008  -12.0240 C   0  0  0  0  0  0  0  0  0  0  0  0
   -6.0053   15.1121  -13.0039 O   0  0  0  0  0  0  0  0  0  0  0  0
   -4.4329   15.7517  -12.9461 H   0  0  0  0  0  0  0  0  0  0  0  0
   -7.9663   17.3441   -8.8157 C   0  0  0  0  0  0  0  0  0  0  0  0
   -8.6862   17.6641   -7.5309 C   0  0  0  0  0  0  0  0  0  0  0  0
   -8.5502   18.9165   -6.9589 C   0  0  0  0  0  0  0  0  0  0  0  0
   -9.2060   19.2160   -5.7827 C   0  0  0  0  0  0  0  0  0  0  0  0
  -10.0089   18.2518   -5.1699 C   0  0  0  0  0  0  0  0  0  0  0  0
  -10.1420   16.9902   -5.7530 C   0  0  0  0  0  0  0  0  0  0  0  0
   -9.4847   16.7058   -6.9320 C   0  0  0  0  0  0  0  0  0  0  0  0
  -10.6930   18.5558   -3.9492 C   0  0  0  0  0  0  0  0  0  0  0  0
  -11.2357   18.7970   -2.9808 N   0  0  0  0  0  0  0  0  0  0  0  0
 11 12  1  0  0  0
 12 13  1  0  0  0
 13 14  2  0  0  0
 13  1  1  0  0  0
  1  5  1  0  0  0
  1  2  1  0  0  0
  2  3  1  0  0  0
  3  4  1  0  0  0
  5  4  1  0  0  0
  5  9  1  0  0  0
  5  6  1  0  0  0
  6  7  1  0  0  0
  7  8  1  0  0  0
  8 16  1  0  0  0
  8  9  1  0  0  0
 16 17  1  0  0  0
 17 22  1  0  0  0
 17 18  2  0  0  0
 18 19  1  0  0  0
 19 20  2  0  0  0
 20 23  1  0  0  0
 20 21  1  0  0  0
 23 24  3  0  0  0
 21 22  2  0  0  0
 12 15  1  0  0  0
  8 10  1  0  0  0
M  CHG 1   8   1
M  END
> <minimizedAffinity>
-6.94048

$$$$
ZINC000306142086


 30 33  0  0  0  0  0  0  0  0999 V2000
   -8.5949   15.2858   -7.1376 C   0  0  0  0  0  0  0  0  0  0  0  0
   -9.4027   14.4181   -6.8691 O   0  0  0  0  0  0  0  0  0  0  0  0
   -8.5861   16.4380   -6.4383 N   0  0  0  0  0  0  0  0  0  0  0  0
   -9.4623   16.6085   -5.2719 C   0  0  0  0  0  0  0  0  0  0  0  0
  -10.3175   17.8641   -5.4762 C   0  0  0  0  0  0  0  0  0  0  0  0
   -9.4019   19.0454   -5.8004 C   0  0  0  0  0  0  0  0  0  0  0  0
  -10.1306   20.3921   -5.8185 C   0  0  0  0  0  0  0  0  0  0  0  0
   -9.7567   20.3473   -4.3314 C   0  0  0  0  0  0  0  0  0  0  0  0
   -8.6482   19.5048   -4.6740 O   0  0  0  0  0  0  0  0  0  0  0  0
   -8.5454   18.8021   -7.0440 C   0  0  0  0  0  0  0  0  0  0  0  0
   -7.6957   17.5392   -6.8278 C   0  0  0  0  0  0  0  0  0  0  0  0
   -4.8076   14.4751  -11.3938 C   0  0  0  0  0  0  0  0  0  0  0  0
   -5.7995   14.6872  -10.2792 C   0  0  0  0  0  0  0  0  0  0  0  0
   -5.4527   14.3676   -8.9788 C   0  0  0  0  0  0  0  0  0  0  0  0
   -6.3562   14.5592   -7.9537 C   0  0  0  0  0  0  0  0  0  0  0  0
   -7.6219   15.0773   -8.2311 C   0  0  0  0  0  0  0  0  0  0  0  0
   -7.9653   15.3982   -9.5456 C   0  0  0  0  0  0  0  0  0  0  0  0
   -7.0511   15.2061  -10.5605 C   0  0  0  0  0  0  0  0  0  0  0  0
   -7.4132   15.5462  -11.9547 N   0  0  0  0  0  0  0  0  0  0  0  0
   -8.1051   14.7854  -12.6072 O   0  0  0  0  0  0  0  0  0  0  0  0
   -7.0191   16.5871  -12.4496 O   0  0  0  0  0  0  0  0  0  0  0  0
   -9.3364   21.7071   -3.7698 C   0  0  0  0  0  0  0  0  0  0  0  0
  -10.1082   21.9944   -2.5534 N   0  0  0  0  0  0  0  0  0  0  0  0
  -10.5413   20.7323   -1.9393 C   0  0  0  0  0  0  0  0  0  0  0  0
  -11.3293   21.0305   -0.6619 C   0  0  0  0  0  0  0  0  0  0  0  0
  -12.4964   21.8604   -0.9921 N   0  0  0  0  0  0  0  0  0  0  0  0
  -13.3115   22.1217    0.2018 C   0  0  0  0  0  0  0  0  0  0  0  0
  -12.0796   23.1169   -1.6306 C   0  0  0  0  0  0  0  0  0  0  0  0
  -11.2856   22.8013   -2.9000 C   0  0  0  0  0  0  0  0  0  0  0  0
   -6.7594   31.1732   -6.7580 H   0  0  0  0  0  0  0  0  0  0  0  0
 12 13  1  0  0  0
 13 18  2  0  0  0
 13 14  1  0  0  0
 14 15  2  0  0  0
 15 16  1  0  0  0
 16  1  1  0  0  0
 16 17  2  0  0  0
  1  2  2  0  0  0
  1  3  1  0  0  0
  3 11  1  0  0  0
  3  4  1  0  0  0
  4  5  1  0  0  0
  5  6  1  0  0  0
  6  9  1  0  0  0
  6  7  1  0  0  0
  6 10  1  0  0  0
  7  8  1  0  0  0
  8 22  1  0  0  0
  8  9  1  0  0  0
 22 23  1  0  0  0
 23 29  1  0  0  0
 23 24  1  0  0  0
 24 25  1  0  0  0
 25 26  1  0  0  0
 26 27  1  0  0  0
 26 28  1  0  0  0
 28 29  1  0  0  0
 10 11  1  0  0  0
 17 18  1  0  0  0
 18 19  1  0  0  0
 19 20  1  0  0  0
 19 21  2  0  0  0
 23 30  1  0  0  0
M  CHG 1  19   1
M  CHG 1  20  -1
M  CHG 1  23   1
M  END
> <minimizedAffinity>
-7.16472

$$$$
ZINC000095362887


 30 33  0  0  0  0  0  0  0  0999 V2000
   -7.1586   15.5213   -9.8095 N   0  0  0  0  0  0  0  0  0  0  0  0
   -8.2615   14.9272   -9.2928 C   0  0  0  0  0  0  0  0  0  0  0  0
   -8.8564   14.0587   -9.8950 O   0  0  0  0  0  0  0  0  0  0  0  0
   -8.7160   15.3998   -7.9256 C   0  0  0  0  0  0  0  0  0  0  0  0
   -7.5351   15.4615   -6.9733 C   0  0  0  0  0  0  0  0  0  0  0  0
   -6.3140   16.1234   -7.5853 C   0  0  0  0  0  0  0  0  0  0  0  0
   -6.5098   16.5611   -8.9909 C   0  0  0  0  0  0  0  0  0  0  0  0
   -7.4097   17.7944   -9.0644 C   0  0  0  0  0  0  0  0  0  0  0  0
   -8.3981   17.7801   -7.9918 N   0  0  0  0  0  0  0  0  0  0  0  0
   -9.3510   16.7835   -8.0681 C   0  0  0  0  0  0  0  0  0  0  0  0
   -5.8892   12.5302  -11.0721 H   0  0  0  0  0  0  0  0  0  0  0  0
   -6.6305   15.1420  -11.1224 C   0  0  0  0  0  0  0  0  0  0  0  0
   -4.8211   16.9862  -12.2518 C   0  0  0  0  0  0  0  0  0  0  0  0
   -6.2768   17.0219  -12.6396 C   0  0  0  0  0  0  0  0  0  0  0  0
   -6.7801   18.0859  -13.5808 C   0  0  0  0  0  0  0  0  0  0  0  0
   -7.1049   16.1280  -12.1585 C   0  0  0  0  0  0  0  0  0  0  0  0
   -9.1190   19.0600   -7.9981 C   0  0  0  0  0  0  0  0  0  0  0  0
   -9.2108   19.5916   -6.5910 C   0  0  0  0  0  0  0  0  0  0  0  0
   -8.8272   18.7984   -5.5267 C   0  0  0  0  0  0  0  0  0  0  0  0
   -8.9217   19.3146   -4.2295 C   0  0  0  0  0  0  0  0  0  0  0  0
   -8.5902   18.6391   -3.2677 O   0  0  0  0  0  0  0  0  0  0  0  0
   -9.3845   20.5713   -4.0580 N   0  0  0  0  0  0  0  0  0  0  0  0
   -9.4822   21.0881   -2.8010 C   0  0  0  0  0  0  0  0  0  0  0  0
   -9.9425   22.3432   -2.6014 C   0  0  0  0  0  0  0  0  0  0  0  0
  -10.3278   23.1351   -3.6916 C   0  0  0  0  0  0  0  0  0  0  0  0
  -10.2347   22.6289   -4.9577 C   0  0  0  0  0  0  0  0  0  0  0  0
  -10.6039   23.3824   -6.0268 O   0  0  0  0  0  0  0  0  0  0  0  0
   -9.7509   21.3155   -5.1439 C   0  0  0  0  0  0  0  0  0  0  0  0
   -9.6538   20.8202   -6.3757 N   0  0  0  0  0  0  0  0  0  0  0  0
  -15.5338   15.3725  -10.7859 H   0  0  0  0  0  0  0  0  0  0  0  0
 13 14  1  0  0  0
 14 15  1  0  0  0
 14 16  2  0  0  0
 16 12  1  0  0  0
 12  1  1  0  0  0
  1  7  1  0  0  0
  1  2  1  0  0  0
  2  3  2  0  0  0
  2  4  1  0  0  0
  4 10  1  0  0  0
  4  5  1  0  0  0
  5  6  1  0  0  0
  6  7  1  0  0  0
  7  8  1  0  0  0
  8  9  1  0  0  0
  9 17  1  0  0  0
  9 10  1  0  0  0
 17 18  1  0  0  0
 18 29  1  0  0  0
 18 19  2  0  0  0
 19 20  1  0  0  0
 20 21  2  0  0  0
 20 22  1  0  0  0
 22 28  1  0  0  0
 22 23  1  0  0  0
 23 24  2  0  0  0
 24 25  1  0  0  0
 25 26  2  0  0  0
 26 27  1  0  0  0
 26 28  1  0  0  0
 28 29  2  0  0  0
  9 11  1  0  0  0
 27 30  1  0  0  0
M  CHG 1   9   1
M  END
> <minimizedAffinity>
-8.21086

$$$$
ZINC000020503811


 31 34  0  0  0  0  0  0  0  0999 V2000
   -7.5438   13.7959   -9.7623 C   0  0  0  0  0  0  0  0  0  0  0  0
   -8.1970   14.6527  -10.8507 C   0  0  0  0  0  0  0  0  0  0  0  0
   -7.1666   14.9203  -11.9549 C   0  0  0  0  0  0  0  0  0  0  0  0
   -6.7102   13.5754  -12.5344 C   0  0  0  0  0  0  0  0  0  0  0  0
   -6.1037   12.7322  -11.4092 C   0  0  0  0  0  0  0  0  0  0  0  0
   -6.1508   13.5141  -10.1341 N   0  0  0  0  0  0  0  0  0  0  0  0
   -5.3494   14.7412  -10.2396 C   0  0  0  0  0  0  0  0  0  0  0  0
   -5.9615   15.6397  -11.3357 C   0  0  0  0  0  0  0  0  0  0  0  0
   -7.5744   14.5506   -8.4317 C   0  0  0  0  0  0  0  0  0  0  0  0
   -8.9646   14.7460   -8.0131 N   0  0  0  0  0  0  0  0  0  0  0  0
   -8.0125   16.5680   -6.3383 H   0  0  0  0  0  0  0  0  0  0  0  0
   -8.7546   15.3858   -5.4437 S   0  0  0  0  0  0  0  0  0  0  0  0
   -9.2600   15.6500   -7.0579 C   0  0  0  0  0  0  0  0  0  0  0  0
   -9.9485   16.7645   -7.3747 N   0  0  0  0  0  0  0  0  0  0  0  0
   -7.6081   15.5184   -7.4709 H   0  0  0  0  0  0  0  0  0  0  0  0
   -9.2796   17.8652   -8.0725 C   0  0  0  0  0  0  0  0  0  0  0  0
   -8.4323   18.6602   -7.0770 C   0  0  0  0  0  0  0  0  0  0  0  0
   -9.3141   19.4181   -6.1792 N   0  0  0  0  0  0  0  0  0  0  0  0
   -9.3846   20.8311   -6.5793 C   0  0  0  0  0  0  0  0  0  0  0  0
  -10.3578   21.5692   -5.6562 C   0  0  0  0  0  0  0  0  0  0  0  0
   -9.9332   21.4111   -4.2998 O   0  0  0  0  0  0  0  0  0  0  0  0
   -9.8540   20.0473   -3.8765 C   0  0  0  0  0  0  0  0  0  0  0  0
   -8.8758   19.2938   -4.7815 C   0  0  0  0  0  0  0  0  0  0  0  0
   -6.3822   16.9783  -10.7257 C   0  0  0  0  0  0  0  0  0  0  0  0
   -7.0761   17.7823  -11.7405 N   0  0  0  0  0  0  0  0  0  0  0  0
   -6.1632   18.0527  -12.8597 C   0  0  0  0  0  0  0  0  0  0  0  0
   -6.8886   18.8903  -13.9159 C   0  0  0  0  0  0  0  0  0  0  0  0
   -7.3579   20.1012  -13.3165 O   0  0  0  0  0  0  0  0  0  0  0  0
   -8.2328   19.8897  -12.2049 C   0  0  0  0  0  0  0  0  0  0  0  0
   -7.5101   19.0538  -11.1455 C   0  0  0  0  0  0  0  0  0  0  0  0
   -6.5798   12.8953  -13.9976 H   0  0  0  0  0  0  0  0  0  0  0  0
 12 13  2  0  0  0
 13 14  1  0  0  0
 13 10  1  0  0  0
 14 16  1  0  0  0
 16 17  1  0  0  0
 17 18  1  0  0  0
 18 23  1  0  0  0
 18 19  1  0  0  0
 19 20  1  0  0  0
 20 21  1  0  0  0
 21 22  1  0  0  0
 22 23  1  0  0  0
 10  9  1  0  0  0
  9  1  1  0  0  0
  1  6  1  0  0  0
  1  2  1  0  0  0
  2  3  1  0  0  0
  3  8  1  0  0  0
  3  4  1  0  0  0
  4  5  1  0  0  0
  6  5  1  0  0  0
  6  7  1  0  0  0
  7  8  1  0  0  0
  8 24  1  0  0  0
 24 25  1  0  0  0
 25 30  1  0  0  0
 25 26  1  0  0  0
 26 27  1  0  0  0
 27 28  1  0  0  0
 28 29  1  0  0  0
 29 30  1  0  0  0
 14 15  1  0  0  0
 10 11  1  0  0  0
 25 31  1  0  0  0
M  CHG 1  25   1
M  END
> <minimizedAffinity>
-6.40962

$$$$
ZINC000003595912


 27 29  0  0  0  0  0  0  0  0999 V2000
   -7.4680   14.8852   -7.8985 N   0  0  0  0  0  0  0  0  0  0  0  0
   -6.1487   15.1111   -7.8823 C   0  0  0  0  0  0  0  0  0  0  0  0
   -5.5412   15.4978   -6.9033 O   0  0  0  0  0  0  0  0  0  0  0  0
   -5.5700   14.8611   -9.0724 N   0  0  0  0  0  0  0  0  0  0  0  0
   -6.6438   14.4189   -9.9715 C   0  0  0  0  0  0  0  0  0  0  0  0
   -6.7804   15.3760  -11.1506 C   0  0  0  0  0  0  0  0  0  0  0  0
   -7.9252   14.9146  -12.0560 C   0  0  0  0  0  0  0  0  0  0  0  0
   -7.6380   13.4981  -12.5578 C   0  0  0  0  0  0  0  0  0  0  0  0
   -7.5284   12.5459  -11.3651 C   0  0  0  0  0  0  0  0  0  0  0  0
   -6.3817   12.9975  -10.4570 C   0  0  0  0  0  0  0  0  0  0  0  0
   -6.2849   12.0583   -9.2532 C   0  0  0  0  0  0  0  0  0  0  0  0
   -7.8839   14.4571   -9.1086 C   0  0  0  0  0  0  0  0  0  0  0  0
   -9.0152   14.1697   -9.4363 O   0  0  0  0  0  0  0  0  0  0  0  0
   -9.1093    9.0580   -1.6235 H   0  0  0  0  0  0  0  0  0  0  0  0
   -8.3499   15.0736   -6.7440 C   0  0  0  0  0  0  0  0  0  0  0  0
   -8.1316   17.5298   -6.5482 N   0  0  0  0  0  0  0  0  0  0  0  0
   -8.9269   16.4655   -6.7744 C   0  0  0  0  0  0  0  0  0  0  0  0
  -10.1071   16.6278   -7.0026 O   0  0  0  0  0  0  0  0  0  0  0  0
  -10.3764   22.7299   -6.2369 H   0  0  0  0  0  0  0  0  0  0  0  0
   -9.7798   21.3483   -6.3059 C   0  0  0  0  0  0  0  0  0  0  0  0
   -9.4099   20.8332   -7.5347 C   0  0  0  0  0  0  0  0  0  0  0  0
   -8.8636   19.5675   -7.6184 C   0  0  0  0  0  0  0  0  0  0  0  0
   -8.6853   18.8121   -6.4668 C   0  0  0  0  0  0  0  0  0  0  0  0
   -9.0574   19.3326   -5.2342 C   0  0  0  0  0  0  0  0  0  0  0  0
   -9.5987   20.6008   -5.1567 C   0  0  0  0  0  0  0  0  0  0  0  0
   -9.2664   23.7737   -6.3611 C   0  0  0  0  0  0  0  0  0  0  0  0
  -10.3757   22.7296   -6.2182 C   0  0  0  0  0  0  0  0  0  0  0  0
 26 27  1  0  0  0
 27 20  1  0  0  0
 20 25  2  0  0  0
 20 21  1  0  0  0
 21 22  2  0  0  0
 22 23  1  0  0  0
 23 16  1  0  0  0
 23 24  2  0  0  0
 16 17  1  0  0  0
 17 18  2  0  0  0
 17 15  1  0  0  0
 15  1  1  0  0  0
  1 12  1  0  0  0
  1  2  1  0  0  0
  2  3  2  0  0  0
  2  4  1  0  0  0
  5  4  1  0  0  0
  5 10  1  0  0  0
  5  6  1  0  0  0
  5 12  1  0  0  0
  6  7  1  0  0  0
  7  8  1  0  0  0
  8  9  1  0  0  0
  9 10  1  0  0  0
 10 11  1  0  0  0
 12 13  2  0  0  0
 24 25  1  0  0  0
 16 19  1  0  0  0
  4 14  1  0  0  0
M  END
> <minimizedAffinity>
-8.08155

$$$$
ZINC000020898635


 31 35  0  0  0  0  0  0  0  0999 V2000
   -9.8328   20.6613   -7.2072 C   0  0  0  0  0  0  0  0  0  0  0  0
   -9.0092   19.5174   -7.6066 N   0  0  0  0  0  0  0  0  0  0  0  0
   -8.9871   18.3349   -6.8523 C   0  0  0  0  0  0  0  0  0  0  0  0
   -9.5723   17.9268   -5.7393 C   0  0  0  0  0  0  0  0  0  0  0  0
  -10.5154   18.6676   -4.8171 C   0  0  0  0  0  0  0  0  0  0  0  0
  -11.3296   17.6689   -4.1075 N   0  0  0  0  0  0  0  0  0  0  0  0
  -10.7529   16.4700   -3.6740 C   0  0  0  0  0  0  0  0  0  0  0  0
  -11.2475   15.8164   -2.5561 C   0  0  0  0  0  0  0  0  0  0  0  0
  -10.6841   14.6206   -2.1506 C   0  0  0  0  0  0  0  0  0  0  0  0
   -9.6294   14.0695   -2.8546 C   0  0  0  0  0  0  0  0  0  0  0  0
   -9.1222   14.7186   -3.9671 C   0  0  0  0  0  0  0  0  0  0  0  0
   -9.6729   15.9184   -4.3714 C   0  0  0  0  0  0  0  0  0  0  0  0
   -9.1736   16.6227   -5.4783 N   0  0  0  0  0  0  0  0  0  0  0  0
   -8.3011   16.2023   -6.4137 C   0  0  0  0  0  0  0  0  0  0  0  0
   -8.1325   17.2070   -7.3114 C   0  0  0  0  0  0  0  0  0  0  0  0
   -7.3365   17.3665   -8.5364 C   0  0  0  0  0  0  0  0  0  0  0  0
   -6.6172   16.4837   -8.9637 O   0  0  0  0  0  0  0  0  0  0  0  0
   -7.4595   18.5672   -9.1587 N   0  0  0  0  0  0  0  0  0  0  0  0
   -6.6915   18.7895  -10.3862 C   0  0  0  0  0  0  0  0  0  0  0  0
   -8.2439   19.5562   -8.7198 C   0  0  0  0  0  0  0  0  0  0  0  0
   -8.2634   20.5818   -9.3726 O   0  0  0  0  0  0  0  0  0  0  0  0
   -8.5387   18.8404   -7.4278 H   0  0  0  0  0  0  0  0  0  0  0  0
   -9.7246   19.4809   -3.8250 C   0  0  0  0  0  0  0  0  0  0  0  0
   -8.5984   18.9424   -3.2313 C   0  0  0  0  0  0  0  0  0  0  0  0
   -7.8731   19.6883   -2.3212 C   0  0  0  0  0  0  0  0  0  0  0  0
   -8.2737   20.9730   -2.0052 C   0  0  0  0  0  0  0  0  0  0  0  0
   -9.3991   21.5121   -2.5999 C   0  0  0  0  0  0  0  0  0  0  0  0
  -10.1222   20.7675   -3.5129 C   0  0  0  0  0  0  0  0  0  0  0  0
   -7.4973   21.7717   -1.0303 N   0  0  0  0  0  0  0  0  0  0  0  0
   -7.9826   22.7766   -0.5423 O   0  0  0  0  0  0  0  0  0  0  0  0
   -6.3730   21.4239   -0.7162 O   0  0  0  0  0  0  0  0  0  0  0  0
  1  2  1  0  0  0
  2 20  1  0  0  0
  2  3  1  0  0  0
  3 15  1  0  0  0
  3  4  2  0  0  0
  4 13  1  0  0  0
  4  5  1  0  0  0
  5 23  1  0  0  0
  5  6  1  0  0  0
 23 28  1  0  0  0
 23 24  2  0  0  0
 24 25  1  0  0  0
 25 26  2  0  0  0
 26 29  1  0  0  0
 26 27  1  0  0  0
 29 30  1  0  0  0
 29 31  2  0  0  0
 27 28  2  0  0  0
  6  7  1  0  0  0
  7 12  2  0  0  0
  7  8  1  0  0  0
  8  9  2  0  0  0
  9 10  1  0  0  0
 10 11  2  0  0  0
 11 12  1  0  0  0
 12 13  1  0  0  0
 13 14  1  0  0  0
 14 15  2  0  0  0
 15 16  1  0  0  0
 16 17  2  0  0  0
 16 18  1  0  0  0
 18 19  1  0  0  0
 18 20  1  0  0  0
 20 21  2  0  0  0
  6 22  1  0  0  0
M  CHG 1  29   1
M  CHG 1  30  -1
M  END
> <minimizedAffinity>
-7.00557

$$$$
ZINC000061111478


 27 29  0  0  0  0  0  0  0  0999 V2000
   -9.7716   20.4537   -7.1299 N   0  0  0  0  0  0  0  0  0  0  0  0
   -9.1334   19.2939   -6.8766 C   0  0  0  0  0  0  0  0  0  0  0  0
   -8.3226   19.2318   -5.9768 O   0  0  0  0  0  0  0  0  0  0  0  0
  -10.6960   26.0572   -5.0862 H   0  0  0  0  0  0  0  0  0  0  0  0
   -9.8028   22.6195   -4.1533 C   0  0  0  0  0  0  0  0  0  0  0  0
   -9.1713   23.7527   -4.6497 C   0  0  0  0  0  0  0  0  0  0  0  0
   -8.7423   23.7870   -5.9628 C   0  0  0  0  0  0  0  0  0  0  0  0
   -8.9400   22.6953   -6.7858 C   0  0  0  0  0  0  0  0  0  0  0  0
   -9.5714   21.5590   -6.2955 C   0  0  0  0  0  0  0  0  0  0  0  0
   -9.9977   21.5190   -4.9758 C   0  0  0  0  0  0  0  0  0  0  0  0
  -12.0202   22.6865   -1.1122 C   0  0  0  0  0  0  0  0  0  0  0  0
  -11.5306   22.8251   -2.5307 C   0  0  0  0  0  0  0  0  0  0  0  0
  -12.3007   23.1521   -3.4089 O   0  0  0  0  0  0  0  0  0  0  0  0
  -10.2370   22.5856   -2.8235 N   0  0  0  0  0  0  0  0  0  0  0  0
   -8.6896   22.4370   -1.8679 H   0  0  0  0  0  0  0  0  0  0  0  0
   -9.4275   18.0743   -7.7116 C   0  0  0  0  0  0  0  0  0  0  0  0
   -8.5365   18.0521   -8.8743 N   0  0  0  0  0  0  0  0  0  0  0  0
   -8.5684   19.1175   -9.7745 N   0  0  0  0  0  0  0  0  0  0  0  0
   -7.8091   19.1693  -10.8280 C   0  0  0  0  0  0  0  0  0  0  0  0
   -6.8720   18.0814  -11.1090 C   0  0  0  0  0  0  0  0  0  0  0  0
   -6.0394   18.0978  -12.2293 C   0  0  0  0  0  0  0  0  0  0  0  0
   -5.1750   17.0485  -12.4489 C   0  0  0  0  0  0  0  0  0  0  0  0
   -5.1226   15.9754  -11.5691 C   0  0  0  0  0  0  0  0  0  0  0  0
   -5.9347   15.9371  -10.4568 C   0  0  0  0  0  0  0  0  0  0  0  0
   -6.8174   16.9880  -10.2142 C   0  0  0  0  0  0  0  0  0  0  0  0
   -7.7031   17.0045   -9.0431 C   0  0  0  0  0  0  0  0  0  0  0  0
   -7.6892   16.0873   -8.2417 O   0  0  0  0  0  0  0  0  0  0  0  0
 11 12  1  0  0  0
 12 13  2  0  0  0
 12 14  1  0  0  0
 14  5  1  0  0  0
  5 10  2  0  0  0
  5  6  1  0  0  0
  6  7  2  0  0  0
  7  8  1  0  0  0
  8  9  2  0  0  0
  9  1  1  0  0  0
  9 10  1  0  0  0
  1  2  1  0  0  0
  2  3  2  0  0  0
  2 16  1  0  0  0
 16 17  1  0  0  0
 17 26  1  0  0  0
 17 18  1  0  0  0
 18 19  2  0  0  0
 19 20  1  0  0  0
 20 25  2  0  0  0
 20 21  1  0  0  0
 21 22  2  0  0  0
 22 23  1  0  0  0
 23 24  2  0  0  0
 24 25  1  0  0  0
 25 26  1  0  0  0
 26 27  2  0  0  0
 14 15  1  0  0  0
  1  4  1  0  0  0
M  END
> <minimizedAffinity>
-8.31008

$$$$
ZINC000252570572


 21 22  0  0  0  0  0  0  0  0999 V2000
   -5.7026   14.0525  -12.2531 C   0  0  0  0  0  0  0  0  0  0  0  0
   -4.7774   12.9797  -11.6750 C   0  0  0  0  0  0  0  0  0  0  0  0
   -5.3128   12.5228  -10.3165 C   0  0  0  0  0  0  0  0  0  0  0  0
   -5.3677   13.7173   -9.3619 C   0  0  0  0  0  0  0  0  0  0  0  0
   -6.2930   14.7900   -9.9401 C   0  0  0  0  0  0  0  0  0  0  0  0
   -5.7575   15.2469  -11.2985 C   0  0  0  0  0  0  0  0  0  0  0  0
   -9.4593   13.7380  -12.9187 C   0  0  0  0  0  0  0  0  0  0  0  0
   -8.1134   14.2923  -12.7519 N   0  0  0  0  0  0  0  0  0  0  0  0
   -7.0870   13.4824  -12.4247 C   0  0  0  0  0  0  0  0  0  0  0  0
   -7.2775   12.2949  -12.2684 O   0  0  0  0  0  0  0  0  0  0  0  0
   -8.1161   14.2885  -12.7540 H   0  0  0  0  0  0  0  0  0  0  0  0
   -6.6458   16.2769  -11.8538 N   0  0  0  0  0  0  0  0  0  0  0  0
   -8.3122   12.5043  -11.4191 H   0  0  0  0  0  0  0  0  0  0  0  0
   -8.3122   12.5043  -11.4191 H   0  0  0  0  0  0  0  0  0  0  0  0
   -6.0962   17.6073  -11.5605 C   0  0  0  0  0  0  0  0  0  0  0  0
   -5.7455   18.3144  -12.8711 C   0  0  0  0  0  0  0  0  0  0  0  0
   -7.1200   18.4193  -10.8098 C   0  0  0  0  0  0  0  0  0  0  0  0
   -7.3560   18.2498   -9.5080 C   0  0  0  0  0  0  0  0  0  0  0  0
   -8.6087   19.3682   -8.9850 S   0  0  0  0  0  0  0  0  0  0  0  0
   -8.7456   20.0224  -10.6120 C   0  0  0  0  0  0  0  0  0  0  0  0
   -7.8828   19.4015  -11.4178 C   0  0  0  0  0  0  0  0  0  0  0  0
  7  8  1  0  0  0
  8  9  1  0  0  0
  9 10  2  0  0  0
  9  1  1  0  0  0
  1  6  1  0  0  0
  1  2  1  0  0  0
  2  3  1  0  0  0
  3  4  1  0  0  0
  4  5  1  0  0  0
  5  6  1  0  0  0
  6 12  1  0  0  0
 12 15  1  0  0  0
 15 16  1  0  0  0
 15 17  1  0  0  0
 17 21  1  0  0  0
 17 18  2  0  0  0
 18 19  1  0  0  0
 19 20  1  0  0  0
 20 21  2  0  0  0
  8 11  1  0  0  0
 12 13  1  0  0  0
 12 14  1  0  0  0
M  CHG 1  12   1
M  END
> <minimizedAffinity>
-6.82709

$$$$
ZINC000139112405


 35 39  0  0  0  0  0  0  0  0999 V2000
   -7.9302   17.9628   -7.4184 C   0  0  0  0  0  0  0  0  0  0  0  0
   -8.4497   17.0123   -6.6699 N   0  0  0  0  0  0  0  0  0  0  0  0
   -9.3153   17.2977   -5.6908 C   0  0  0  0  0  0  0  0  0  0  0  0
   -9.6520   18.6166   -5.4406 C   0  0  0  0  0  0  0  0  0  0  0  0
   -9.1003   19.6229   -6.2395 C   0  0  0  0  0  0  0  0  0  0  0  0
   -9.3840   20.7949   -6.0490 O   0  0  0  0  0  0  0  0  0  0  0  0
   -8.2430   19.2726   -7.2221 N   0  0  0  0  0  0  0  0  0  0  0  0
  -10.5853   18.9645   -4.3124 C   0  0  0  0  0  0  0  0  0  0  0  0
  -11.6165   17.8480   -4.1385 C   0  0  0  0  0  0  0  0  0  0  0  0
  -10.9199   16.5126   -4.1274 C   0  0  0  0  0  0  0  0  0  0  0  0
  -11.3190   15.6342   -3.3928 O   0  0  0  0  0  0  0  0  0  0  0  0
   -9.8612   16.2839   -4.9228 N   0  0  0  0  0  0  0  0  0  0  0  0
   -7.2425   19.2283   -9.0832 H   0  0  0  0  0  0  0  0  0  0  0  0
   -7.2425   19.2283   -9.0832 H   0  0  0  0  0  0  0  0  0  0  0  0
   -7.2112   18.1683   -9.7690 C   0  0  0  0  0  0  0  0  0  0  0  0
   -7.2390   17.0068  -10.7674 C   0  0  0  0  0  0  0  0  0  0  0  0
   -5.9876   16.1466  -10.5781 C   0  0  0  0  0  0  0  0  0  0  0  0
   -5.9748   15.5661   -9.1621 C   0  0  0  0  0  0  0  0  0  0  0  0
   -5.9327   16.7113   -8.1455 C   0  0  0  0  0  0  0  0  0  0  0  0
   -7.0513   17.6263   -8.4128 N   0  0  0  0  0  0  0  0  0  0  0  0
   -8.4237   19.9871  -10.9791 C   0  0  0  0  0  0  0  0  0  0  0  0
   -8.5224   18.9518   -9.8569 C   0  0  0  0  0  0  0  0  0  0  0  0
   -9.7960   19.1214   -3.0382 C   0  0  0  0  0  0  0  0  0  0  0  0
  -10.3666   19.1256   -1.9680 O   0  0  0  0  0  0  0  0  0  0  0  0
   -8.4560   19.2570   -3.0880 N   0  0  0  0  0  0  0  0  0  0  0  0
  -15.9394   16.8410   -3.4023 H   0  0  0  0  0  0  0  0  0  0  0  0
   -7.7331   19.5067   -1.9142 C   0  0  0  0  0  0  0  0  0  0  0  0
   -7.1989   18.4499   -1.1900 C   0  0  0  0  0  0  0  0  0  0  0  0
   -6.4860   18.6945   -0.0315 C   0  0  0  0  0  0  0  0  0  0  0  0
   -6.3024   19.9945    0.4103 C   0  0  0  0  0  0  0  0  0  0  0  0
   -5.6515   20.4952    1.5018 O   0  0  0  0  0  0  0  0  0  0  0  0
   -5.4439   21.8915    1.2183 C   0  0  0  0  0  0  0  0  0  0  0  0
   -6.5212   22.2226    0.3223 O   0  0  0  0  0  0  0  0  0  0  0  0
   -6.8370   21.0573   -0.3147 C   0  0  0  0  0  0  0  0  0  0  0  0
   -7.5461   20.8116   -1.4782 C   0  0  0  0  0  0  0  0  0  0  0  0
 21 22  1  0  0  0
 22 15  1  0  0  0
 15 20  1  0  0  0
 15 16  1  0  0  0
 16 17  1  0  0  0
 17 18  1  0  0  0
 18 19  1  0  0  0
 19 20  1  0  0  0
 20  1  1  0  0  0
  1  7  1  0  0  0
  1  2  2  0  0  0
  2  3  1  0  0  0
  3 12  1  0  0  0
  3  4  2  0  0  0
  4  5  1  0  0  0
  4  8  1  0  0  0
  5  6  2  0  0  0
  5  7  1  0  0  0
  8 23  1  0  0  0
  8  9  1  0  0  0
 23 24  2  0  0  0
 23 25  1  0  0  0
 25 27  1  0  0  0
 27 35  1  0  0  0
 27 28  2  0  0  0
 28 29  1  0  0  0
 29 30  2  0  0  0
 30 34  1  0  0  0
 30 31  1  0  0  0
 31 32  1  0  0  0
 32 33  1  0  0  0
 33 34  1  0  0  0
 34 35  2  0  0  0
  9 10  1  0  0  0
 10 11  2  0  0  0
 10 12  1  0  0  0
  7 13  1  0  0  0
 25 26  1  0  0  0
 12 14  1  0  0  0
M  END
> <minimizedAffinity>
-7.79892

$$$$
ZINC000058573052


 31 33  0  0  0  0  0  0  0  0999 V2000
   -9.1452   16.6494   -5.5187 C   0  0  0  0  0  0  0  0  0  0  0  0
   -6.8588   13.9820   -7.8387 N   0  0  0  0  0  0  0  0  0  0  0  0
   -7.8263   14.8432   -8.5333 C   0  0  0  0  0  0  0  0  0  0  0  0
   -8.8509   15.3700   -7.5261 C   0  0  0  0  0  0  0  0  0  0  0  0
   -8.1596   16.1291   -6.4757 N   0  0  0  0  0  0  0  0  0  0  0  0
   -7.2148   15.2494   -5.7749 C   0  0  0  0  0  0  0  0  0  0  0  0
   -6.1765   14.7217   -6.7675 C   0  0  0  0  0  0  0  0  0  0  0  0
   -5.9628   11.2119  -13.1555 H   0  0  0  0  0  0  0  0  0  0  0  0
   -5.8900   13.4101   -8.7833 C   0  0  0  0  0  0  0  0  0  0  0  0
   -6.3811   13.7025  -11.1899 N   0  0  0  0  0  0  0  0  0  0  0  0
   -6.5995   13.0136  -10.0523 C   0  0  0  0  0  0  0  0  0  0  0  0
   -7.3672   12.0747  -10.0499 O   0  0  0  0  0  0  0  0  0  0  0  0
   -6.3333   18.2403   -9.4364 H   0  0  0  0  0  0  0  0  0  0  0  0
   -7.0708   13.3170  -12.4235 C   0  0  0  0  0  0  0  0  0  0  0  0
   -9.4178   13.7396  -12.9474 C   0  0  0  0  0  0  0  0  0  0  0  0
   -8.2423   14.2370  -12.6525 C   0  0  0  0  0  0  0  0  0  0  0  0
   -8.7279   18.0508   -5.0682 C   0  0  0  0  0  0  0  0  0  0  0  0
   -9.7421   19.0747   -5.5820 C   0  0  0  0  0  0  0  0  0  0  0  0
   -9.3026   19.5837   -6.9307 C   0  0  0  0  0  0  0  0  0  0  0  0
   -8.8955   18.8571   -7.9415 N   0  0  0  0  0  0  0  0  0  0  0  0
   -8.6099   19.7358   -8.9288 C   0  0  0  0  0  0  0  0  0  0  0  0
   -8.8578   20.9326   -8.4639 N   0  0  0  0  0  0  0  0  0  0  0  0
   -9.2605   20.8611   -7.3220 O   0  0  0  0  0  0  0  0  0  0  0  0
   -8.1087   19.4040  -10.2858 C   0  0  0  0  0  0  0  0  0  0  0  0
   -8.3833   20.2496  -11.3583 C   0  0  0  0  0  0  0  0  0  0  0  0
   -7.9148   19.9377  -12.6189 C   0  0  0  0  0  0  0  0  0  0  0  0
   -7.1736   18.7878  -12.8194 C   0  0  0  0  0  0  0  0  0  0  0  0
   -6.6652   18.4529  -14.1979 C   0  0  0  0  0  0  0  0  0  0  0  0
   -6.8965   17.9427  -11.7569 C   0  0  0  0  0  0  0  0  0  0  0  0
   -6.1711   16.8209  -11.9584 F   0  0  0  0  0  0  0  0  0  0  0  0
   -7.3571   18.2488  -10.4900 C   0  0  0  0  0  0  0  0  0  0  0  0
 15 16  2  0  0  0
 16 14  1  0  0  0
 14 10  1  0  0  0
 10 11  1  0  0  0
 11 12  2  0  0  0
 11  9  1  0  0  0
  9  2  1  0  0  0
  2  7  1  0  0  0
  2  3  1  0  0  0
  3  4  1  0  0  0
  4  5  1  0  0  0
  5  1  1  0  0  0
  5  6  1  0  0  0
  1 17  1  0  0  0
 17 18  1  0  0  0
 18 19  1  0  0  0
 19 23  1  0  0  0
 19 20  2  0  0  0
 20 21  1  0  0  0
 21 24  1  0  0  0
 21 22  2  0  0  0
 24 31  1  0  0  0
 24 25  2  0  0  0
 25 26  1  0  0  0
 26 27  2  0  0  0
 27 28  1  0  0  0
 27 29  1  0  0  0
 29 30  1  0  0  0
 29 31  2  0  0  0
 22 23  1  0  0  0
  6  7  1  0  0  0
 10 13  1  0  0  0
  5  8  1  0  0  0
M  CHG 1   5   1
M  END
> <minimizedAffinity>
-7.36818

$$$$
ZINC000020458274


 31 34  0  0  0  0  0  0  0  0999 V2000
   -7.9508   18.4546   -7.9586 N   0  0  0  0  0  0  0  0  0  0  0  0
   -7.8788   17.1948   -7.4533 C   0  0  0  0  0  0  0  0  0  0  0  0
   -8.6031   17.1219   -6.3550 N   0  0  0  0  0  0  0  0  0  0  0  0
   -9.1665   18.3042   -6.1015 C   0  0  0  0  0  0  0  0  0  0  0  0
   -8.7667   19.1825   -7.1028 C   0  0  0  0  0  0  0  0  0  0  0  0
   -9.2251   20.5115   -7.0735 C   0  0  0  0  0  0  0  0  0  0  0  0
   -8.8880   21.2984   -7.9408 O   0  0  0  0  0  0  0  0  0  0  0  0
  -10.0424   20.9061   -6.0753 N   0  0  0  0  0  0  0  0  0  0  0  0
  -10.5226   22.2898   -6.0405 C   0  0  0  0  0  0  0  0  0  0  0  0
  -10.4232   20.0489   -5.1125 C   0  0  0  0  0  0  0  0  0  0  0  0
  -11.1611   20.4396   -4.2284 O   0  0  0  0  0  0  0  0  0  0  0  0
  -10.0030   18.7698   -5.0998 N   0  0  0  0  0  0  0  0  0  0  0  0
  -10.4409   17.8661   -4.0330 C   0  0  0  0  0  0  0  0  0  0  0  0
   -7.1612   16.1574   -8.0030 N   0  0  0  0  0  0  0  0  0  0  0  0
   -8.0268   14.9977   -8.2627 C   0  0  0  0  0  0  0  0  0  0  0  0
   -7.2030   13.8915   -8.9273 C   0  0  0  0  0  0  0  0  0  0  0  0
   -6.0928   13.5615   -8.0882 O   0  0  0  0  0  0  0  0  0  0  0  0
   -5.2284   14.6678   -7.8153 C   0  0  0  0  0  0  0  0  0  0  0  0
   -6.0323   15.7818   -7.1395 C   0  0  0  0  0  0  0  0  0  0  0  0
   -7.2901   18.9502   -9.1685 C   0  0  0  0  0  0  0  0  0  0  0  0
   -8.1100   18.5513  -10.3972 C   0  0  0  0  0  0  0  0  0  0  0  0
   -8.9596   19.6361  -10.7757 O   0  0  0  0  0  0  0  0  0  0  0  0
   -8.4913   18.6245  -15.4991 H   0  0  0  0  0  0  0  0  0  0  0  0
   -7.1658   18.2154  -11.5533 C   0  0  0  0  0  0  0  0  0  0  0  0
   -5.2241   12.9707  -12.3442 C   0  0  0  0  0  0  0  0  0  0  0  0
   -5.6184   14.3833  -12.4286 N   0  0  0  0  0  0  0  0  0  0  0  0
   -4.9377   15.1824  -11.4002 C   0  0  0  0  0  0  0  0  0  0  0  0
   -5.3129   16.6562  -11.5719 C   0  0  0  0  0  0  0  0  0  0  0  0
   -6.7715   16.8028  -11.4689 N   0  0  0  0  0  0  0  0  0  0  0  0
   -7.4522   16.0037  -12.4974 C   0  0  0  0  0  0  0  0  0  0  0  0
   -7.0770   14.5299  -12.3256 C   0  0  0  0  0  0  0  0  0  0  0  0
 25 26  1  0  0  0
 26 31  1  0  0  0
 26 27  1  0  0  0
 27 28  1  0  0  0
 28 29  1  0  0  0
 29 24  1  0  0  0
 29 30  1  0  0  0
 24 21  1  0  0  0
 21 22  1  0  0  0
 21 20  1  0  0  0
 20  1  1  0  0  0
  1  5  1  0  0  0
  1  2  1  0  0  0
  2 14  1  0  0  0
  2  3  2  0  0  0
 14 19  1  0  0  0
 14 15  1  0  0  0
 15 16  1  0  0  0
 16 17  1  0  0  0
 17 18  1  0  0  0
 18 19  1  0  0  0
  3  4  1  0  0  0
  4 12  1  0  0  0
  4  5  2  0  0  0
  5  6  1  0  0  0
  6  7  2  0  0  0
  6  8  1  0  0  0
  8  9  1  0  0  0
  8 10  1  0  0  0
 10 11  2  0  0  0
 10 12  1  0  0  0
 12 13  1  0  0  0
 30 31  1  0  0  0
 22 23  1  0  0  0
M  END
> <minimizedAffinity>
-7.37785

$$$$
ZINC000022145203


 34 36  0  0  0  0  0  0  0  0999 V2000
   -7.8847   17.6968   -7.3193 C   0  0  0  0  0  0  0  0  0  0  0  0
   -7.8859   16.1895   -7.4229 C   0  0  0  0  0  0  0  0  0  0  0  0
   -9.0186   15.7575   -6.8213 C   0  0  0  0  0  0  0  0  0  0  0  0
   -9.3972   14.4643   -6.6990 O   0  0  0  0  0  0  0  0  0  0  0  0
   -9.7762   16.9229   -6.3183 C   0  0  0  0  0  0  0  0  0  0  0  0
  -10.8375   16.8635   -5.7300 O   0  0  0  0  0  0  0  0  0  0  0  0
   -9.1154   18.0603   -6.6071 N   0  0  0  0  0  0  0  0  0  0  0  0
   -7.8235   20.0902  -12.3694 H   0  0  0  0  0  0  0  0  0  0  0  0
   -7.8765   19.4380  -11.2218 C   0  0  0  0  0  0  0  0  0  0  0  0
   -9.0041   19.5358  -10.4197 C   0  0  0  0  0  0  0  0  0  0  0  0
   -9.0044   18.9718   -9.1586 C   0  0  0  0  0  0  0  0  0  0  0  0
   -7.8818   18.3107   -8.6955 C   0  0  0  0  0  0  0  0  0  0  0  0
   -6.7569   18.2113   -9.4932 C   0  0  0  0  0  0  0  0  0  0  0  0
   -6.7535   18.7691  -10.7571 C   0  0  0  0  0  0  0  0  0  0  0  0
   -7.1405   19.3039  -13.4786 C   0  0  0  0  0  0  0  0  0  0  0  0
   -7.8740   19.9915  -12.4630 O   0  0  0  0  0  0  0  0  0  0  0  0
   -6.8583   15.3556   -8.0539 C   0  0  0  0  0  0  0  0  0  0  0  0
   -5.7126   15.3886   -7.6454 O   0  0  0  0  0  0  0  0  0  0  0  0
   -7.2138   14.4750   -9.1857 C   0  0  0  0  0  0  0  0  0  0  0  0
   -6.6664   13.1926   -9.2752 C   0  0  0  0  0  0  0  0  0  0  0  0
   -7.0014   12.3755  -10.3331 C   0  0  0  0  0  0  0  0  0  0  0  0
   -7.8799   12.8241  -11.3080 C   0  0  0  0  0  0  0  0  0  0  0  0
   -8.2047   12.0190  -12.3432 F   0  0  0  0  0  0  0  0  0  0  0  0
   -8.4268   14.0959  -11.2240 C   0  0  0  0  0  0  0  0  0  0  0  0
   -8.1033   14.9195  -10.1675 C   0  0  0  0  0  0  0  0  0  0  0  0
   -9.5491   19.4185   -6.2702 C   0  0  0  0  0  0  0  0  0  0  0  0
   -9.1929   19.7210   -4.8134 C   0  0  0  0  0  0  0  0  0  0  0  0
  -10.2161   20.5998   -4.2314 N   0  0  0  0  0  0  0  0  0  0  0  0
  -13.0320   13.4605   -6.6561 H   0  0  0  0  0  0  0  0  0  0  0  0
  -13.0320   13.4605   -6.6561 H   0  0  0  0  0  0  0  0  0  0  0  0
   -9.9313   21.9933   -4.5985 C   0  0  0  0  0  0  0  0  0  0  0  0
  -11.1968   22.6404   -5.1647 C   0  0  0  0  0  0  0  0  0  0  0  0
  -12.2640   21.6903   -5.1523 O   0  0  0  0  0  0  0  0  0  0  0  0
   -4.2446   18.5324  -11.1055 H   0  0  0  0  0  0  0  0  0  0  0  0
 15 16  1  0  0  0
 16  9  1  0  0  0
  9 14  2  0  0  0
  9 10  1  0  0  0
 10 11  2  0  0  0
 11 12  1  0  0  0
 12  1  1  0  0  0
 12 13  2  0  0  0
  1  7  1  0  0  0
  1  2  1  0  0  0
  2 17  1  0  0  0
  2  3  2  0  0  0
 17 18  2  0  0  0
 17 19  1  0  0  0
 19 25  1  0  0  0
 19 20  2  0  0  0
 20 21  1  0  0  0
 21 22  2  0  0  0
 22 23  1  0  0  0
 22 24  1  0  0  0
 24 25  2  0  0  0
  3  4  1  0  0  0
  3  5  1  0  0  0
  5  6  2  0  0  0
  5  7  1  0  0  0
  7 26  1  0  0  0
 26 27  1  0  0  0
 27 28  1  0  0  0
 28 31  1  0  0  0
 31 32  1  0  0  0
 32 33  1  0  0  0
 13 14  1  0  0  0
  4  8  1  0  0  0
 28 29  1  0  0  0
 28 30  1  0  0  0
 33 34  1  0  0  0
M  CHG 1  28   1
M  END
> <minimizedAffinity>
-8.31345

$$$$
ZINC000009312153


 33 37  0  0  0  0  0  0  0  0999 V2000
   -6.7779   15.7089   -8.6659 C   0  0  0  0  0  0  0  0  0  0  0  0
   -6.3482   17.1191   -8.8629 N   0  0  0  0  0  0  0  0  0  0  0  0
   -7.4106   17.7050   -9.7011 C   0  0  0  0  0  0  0  0  0  0  0  0
   -7.4149   19.2067   -9.6174 C   0  0  0  0  0  0  0  0  0  0  0  0
   -7.5584   19.8755   -8.6159 O   0  0  0  0  0  0  0  0  0  0  0  0
   -7.2277   19.6648  -10.8706 N   0  0  0  0  0  0  0  0  0  0  0  0
   -7.0977   18.6272  -11.7964 C   0  0  0  0  0  0  0  0  0  0  0  0
   -6.8973   18.6561  -13.1741 C   0  0  0  0  0  0  0  0  0  0  0  0
   -6.7977   17.4787  -13.8865 C   0  0  0  0  0  0  0  0  0  0  0  0
   -6.8979   16.2611  -13.2394 C   0  0  0  0  0  0  0  0  0  0  0  0
   -7.0989   16.2230  -11.8707 C   0  0  0  0  0  0  0  0  0  0  0  0
   -7.1979   17.3952  -11.1560 C   0  0  0  0  0  0  0  0  0  0  0  0
   -8.7265   17.1086   -9.1871 C   0  0  0  0  0  0  0  0  0  0  0  0
   -9.2614   17.9575   -8.0554 C   0  0  0  0  0  0  0  0  0  0  0  0
   -9.7062   19.0792   -8.1712 O   0  0  0  0  0  0  0  0  0  0  0  0
   -9.1680   17.2780   -6.9070 N   0  0  0  0  0  0  0  0  0  0  0  0
   -8.6458   16.0523   -7.0279 C   0  0  0  0  0  0  0  0  0  0  0  0
   -8.4712   15.2726   -6.1163 O   0  0  0  0  0  0  0  0  0  0  0  0
   -8.3097   15.7791   -8.4941 C   0  0  0  0  0  0  0  0  0  0  0  0
   -6.1181   15.1363   -7.4149 H   0  0  0  0  0  0  0  0  0  0  0  0
   -6.1181   15.1363   -7.4149 H   0  0  0  0  0  0  0  0  0  0  0  0
   -9.5839   17.8071   -5.6770 C   0  0  0  0  0  0  0  0  0  0  0  0
   -8.9418   18.9166   -5.1445 C   0  0  0  0  0  0  0  0  0  0  0  0
   -9.3538   19.4357   -3.9324 C   0  0  0  0  0  0  0  0  0  0  0  0
  -10.4047   18.8514   -3.2500 C   0  0  0  0  0  0  0  0  0  0  0  0
  -11.0464   17.7460   -3.7781 C   0  0  0  0  0  0  0  0  0  0  0  0
  -10.6426   17.2260   -4.9921 C   0  0  0  0  0  0  0  0  0  0  0  0
  -12.1710   17.1233   -3.0443 N   0  0  0  0  0  0  0  0  0  0  0  0
  -12.0144   16.0535   -2.4835 O   0  0  0  0  0  0  0  0  0  0  0  0
  -13.2530   17.6809   -3.0012 O   0  0  0  0  0  0  0  0  0  0  0  0
   -5.7550   13.6624   -7.6619 C   0  0  0  0  0  0  0  0  0  0  0  0
   -6.1275   15.1249   -7.4102 C   0  0  0  0  0  0  0  0  0  0  0  0
   -4.8660   15.9214   -7.0715 C   0  0  0  0  0  0  0  0  0  0  0  0
 31 32  1  0  0  0
 32 33  1  0  0  0
 32  1  1  0  0  0
  1 19  1  0  0  0
  1  2  1  0  0  0
  3  2  1  0  0  0
  3 12  1  0  0  0
  3  4  1  0  0  0
  3 13  1  0  0  0
  4  5  2  0  0  0
  4  6  1  0  0  0
  6  7  1  0  0  0
  7 12  2  0  0  0
  7  8  1  0  0  0
  8  9  2  0  0  0
  9 10  1  0  0  0
 10 11  2  0  0  0
 11 12  1  0  0  0
 13 19  1  0  0  0
 13 14  1  0  0  0
 14 15  2  0  0  0
 14 16  1  0  0  0
 16 22  1  0  0  0
 16 17  1  0  0  0
 22 27  1  0  0  0
 22 23  2  0  0  0
 23 24  1  0  0  0
 24 25  2  0  0  0
 25 26  1  0  0  0
 26 28  1  0  0  0
 26 27  2  0  0  0
 28 29  1  0  0  0
 28 30  2  0  0  0
 17 18  2  0  0  0
 17 19  1  0  0  0
  2 20  1  0  0  0
  6 21  1  0  0  0
M  CHG 1  28   1
M  CHG 1  29  -1
M  END
> <minimizedAffinity>
-8.13295

$$$$
ZINC000032916598


 26 27  0  0  0  0  0  0  0  0999 V2000
   -8.6729   17.3186   -7.3589 S   0  0  0  0  0  0  0  0  0  0  0  0
   -8.0779   17.9896   -6.2565 O   0  0  0  0  0  0  0  0  0  0  0  0
  -10.0525   16.9823   -7.4114 O   0  0  0  0  0  0  0  0  0  0  0  0
   -9.3503   20.2593   -7.5704 C   0  0  0  0  0  0  0  0  0  0  0  0
   -8.6965   19.6476   -8.7827 C   0  0  0  0  0  0  0  0  0  0  0  0
   -8.4404   20.4254   -9.8961 C   0  0  0  0  0  0  0  0  0  0  0  0
   -7.8406   19.8642  -11.0083 C   0  0  0  0  0  0  0  0  0  0  0  0
   -7.4969   18.5255  -11.0065 C   0  0  0  0  0  0  0  0  0  0  0  0
   -7.7519   17.7479   -9.8921 C   0  0  0  0  0  0  0  0  0  0  0  0
   -8.3479   18.3097   -8.7789 C   0  0  0  0  0  0  0  0  0  0  0  0
   -6.8553   17.9246  -12.1973 N   0  0  0  0  0  0  0  0  0  0  0  0
   -6.7401   16.7149  -12.2817 O   0  0  0  0  0  0  0  0  0  0  0  0
   -6.4424   18.6396  -13.0928 O   0  0  0  0  0  0  0  0  0  0  0  0
   -7.8384   15.9009   -7.5491 N   0  0  0  0  0  0  0  0  0  0  0  0
   -6.5385   15.7038   -6.8933 C   0  0  0  0  0  0  0  0  0  0  0  0
   -5.5098   15.2924   -7.9513 C   0  0  0  0  0  0  0  0  0  0  0  0
   -6.0246   14.0657   -8.7078 C   0  0  0  0  0  0  0  0  0  0  0  0
   -7.3345   14.4150   -9.4178 C   0  0  0  0  0  0  0  0  0  0  0  0
   -8.3867   14.8142   -8.3720 C   0  0  0  0  0  0  0  0  0  0  0  0
   -7.8309   13.1980  -10.2012 C   0  0  0  0  0  0  0  0  0  0  0  0
   -7.0006   12.0358   -9.8757 N   0  0  0  0  0  0  0  0  0  0  0  0
  -11.3472   17.9597   -9.5444 H   0  0  0  0  0  0  0  0  0  0  0  0
   -6.2056   11.2228  -11.0796 S   0  0  0  0  0  0  0  0  0  0  0  0
   -5.0032   12.4217  -11.7178 C   0  0  0  0  0  0  0  0  0  0  0  0
   -5.5424   10.1614  -10.4069 O   0  0  0  0  0  0  0  0  0  0  0  0
   -7.2112   10.9610  -12.0489 O   0  0  0  0  0  0  0  0  0  0  0  0
  4  5  1  0  0  0
  5 10  2  0  0  0
  5  6  1  0  0  0
  6  7  2  0  0  0
  7  8  1  0  0  0
  8 11  1  0  0  0
  8  9  2  0  0  0
 11 12  1  0  0  0
 11 13  2  0  0  0
  9 10  1  0  0  0
 10  1  1  0  0  0
  1  2  2  0  0  0
  1  3  2  0  0  0
  1 14  1  0  0  0
 14 19  1  0  0  0
 14 15  1  0  0  0
 15 16  1  0  0  0
 16 17  1  0  0  0
 17 18  1  0  0  0
 18 20  1  0  0  0
 18 19  1  0  0  0
 20 21  1  0  0  0
 21 23  1  0  0  0
 23 24  1  0  0  0
 23 25  2  0  0  0
 23 26  2  0  0  0
 21 22  1  0  0  0
M  CHG 1  11   1
M  CHG 1  12  -1
M  END
> <minimizedAffinity>
-8.04513

$$$$
ZINC000096006337


 31 34  0  0  0  0  0  0  0  0999 V2000
   -6.7972   17.5151   -9.9082 C   0  0  0  0  0  0  0  0  0  0  0  0
   -6.7436   18.4330  -11.1315 C   0  0  0  0  0  0  0  0  0  0  0  0
   -5.9580   17.7476  -12.2518 C   0  0  0  0  0  0  0  0  0  0  0  0
   -6.6706   16.4516  -12.6507 C   0  0  0  0  0  0  0  0  0  0  0  0
   -6.8557   15.6248  -11.4503 N   0  0  0  0  0  0  0  0  0  0  0  0
   -7.5190   16.2159  -10.2800 C   0  0  0  0  0  0  0  0  0  0  0  0
  -10.7661   21.8389   -5.3326 C   0  0  0  0  0  0  0  0  0  0  0  0
   -9.9248   20.7095   -5.8689 C   0  0  0  0  0  0  0  0  0  0  0  0
   -9.5483   19.6717   -5.0289 C   0  0  0  0  0  0  0  0  0  0  0  0
   -8.7861   18.6384   -5.4959 C   0  0  0  0  0  0  0  0  0  0  0  0
   -8.3791   18.6223   -6.8322 C   0  0  0  0  0  0  0  0  0  0  0  0
   -7.6382   17.7603   -7.5752 N   0  0  0  0  0  0  0  0  0  0  0  0
   -7.5433   18.2039   -8.7947 C   0  0  0  0  0  0  0  0  0  0  0  0
   -8.2160   19.3798   -8.9182 N   0  0  0  0  0  0  0  0  0  0  0  0
   -8.7601   19.6734   -7.6839 C   0  0  0  0  0  0  0  0  0  0  0  0
   -9.5391   20.7119   -7.1929 C   0  0  0  0  0  0  0  0  0  0  0  0
   -9.9059   20.7782   -5.9316 H   0  0  0  0  0  0  0  0  0  0  0  0
   -6.4135   14.3151  -11.4219 C   0  0  0  0  0  0  0  0  0  0  0  0
   -5.1197   14.0592  -11.3062 N   0  0  0  0  0  0  0  0  0  0  0  0
   -4.6559   12.8250  -11.2748 C   0  0  0  0  0  0  0  0  0  0  0  0
   -5.5060   11.7371  -11.3618 C   0  0  0  0  0  0  0  0  0  0  0  0
   -6.8687   11.9451  -11.4842 C   0  0  0  0  0  0  0  0  0  0  0  0
   -7.3406   13.2622  -11.5102 C   0  0  0  0  0  0  0  0  0  0  0  0
   -8.7827   13.5405  -11.6385 C   0  0  0  0  0  0  0  0  0  0  0  0
   -9.3319   13.7023  -12.8586 N   0  0  0  0  0  0  0  0  0  0  0  0
   -9.4766   13.6242  -10.6434 O   0  0  0  0  0  0  0  0  0  0  0  0
  -11.8025    7.2287   -5.3106 H   0  0  0  0  0  0  0  0  0  0  0  0
  -11.8025    7.2287   -5.3106 H   0  0  0  0  0  0  0  0  0  0  0  0
   -4.9623   10.3611  -11.3238 N   0  0  0  0  0  0  0  0  0  0  0  0
   -5.3532    9.5748  -10.4797 O   0  0  0  0  0  0  0  0  0  0  0  0
   -4.1237   10.0149  -12.1366 O   0  0  0  0  0  0  0  0  0  0  0  0
  7  8  1  0  0  0
  8 16  2  0  0  0
  8  9  1  0  0  0
  9 10  2  0  0  0
 10 11  1  0  0  0
 11 15  2  0  0  0
 11 12  1  0  0  0
 12 13  2  0  0  0
 13  1  1  0  0  0
 13 14  1  0  0  0
  1  6  1  0  0  0
  1  2  1  0  0  0
  2  3  1  0  0  0
  3  4  1  0  0  0
  4  5  1  0  0  0
  5 18  1  0  0  0
  5  6  1  0  0  0
 18 23  1  0  0  0
 18 19  2  0  0  0
 19 20  1  0  0  0
 20 21  2  0  0  0
 21 29  1  0  0  0
 21 22  1  0  0  0
 29 30  1  0  0  0
 29 31  2  0  0  0
 22 23  2  0  0  0
 23 24  1  0  0  0
 24 25  1  0  0  0
 24 26  2  0  0  0
 14 15  1  0  0  0
 15 16  1  0  0  0
 25 27  1  0  0  0
 25 28  1  0  0  0
 14 17  1  0  0  0
M  CHG 1  29   1
M  CHG 1  30  -1
M  END
> <minimizedAffinity>
-9.31225

$$$$
ZINC000003870222


 33 32  0  0  0  0  0  0  0  0999 V2000
   -7.6818   15.9404   -9.0805 C   0  0  0  0  0  0  0  0  0  0  0  0
   -7.6734   16.3886   -7.6858 N   0  0  0  0  0  0  0  0  0  0  0  0
   -8.7973   16.8831   -7.1301 C   0  0  0  0  0  0  0  0  0  0  0  0
   -9.8155   16.9572   -7.7848 O   0  0  0  0  0  0  0  0  0  0  0  0
   -3.2171   18.7443  -10.3998 H   0  0  0  0  0  0  0  0  0  0  0  0
   -8.7887   17.3441   -5.6954 C   0  0  0  0  0  0  0  0  0  0  0  0
   -9.8330   18.4463   -5.5075 C   0  0  0  0  0  0  0  0  0  0  0  0
  -10.4513   18.3308   -4.1128 C   0  0  0  0  0  0  0  0  0  0  0  0
   -9.5448   17.5772   -3.2363 N   0  0  0  0  0  0  0  0  0  0  0  0
   -5.6419   25.6023   -8.0247 H   0  0  0  0  0  0  0  0  0  0  0  0
   -5.6419   25.6023   -8.0247 H   0  0  0  0  0  0  0  0  0  0  0  0
   -5.6419   25.6023   -8.0247 H   0  0  0  0  0  0  0  0  0  0  0  0
  -11.7723   17.6116   -4.2070 C   0  0  0  0  0  0  0  0  0  0  0  0
  -12.0294   16.9349   -5.1881 O   0  0  0  0  0  0  0  0  0  0  0  0
  -12.5840   17.7065   -3.3022 O   0  0  0  0  0  0  0  0  0  0  0  0
   -6.2125   25.5315    0.5230 H   0  0  0  0  0  0  0  0  0  0  0  0
   -7.6534   14.4344   -9.1244 C   0  0  0  0  0  0  0  0  0  0  0  0
   -8.4731   13.7940   -8.5009 O   0  0  0  0  0  0  0  0  0  0  0  0
   -6.7171   13.7990   -9.8567 N   0  0  0  0  0  0  0  0  0  0  0  0
   -4.3900   19.9966   -7.5815 H   0  0  0  0  0  0  0  0  0  0  0  0
   -6.6895   12.3349   -9.8994 C   0  0  0  0  0  0  0  0  0  0  0  0
   -7.1088   11.8643  -11.2682 C   0  0  0  0  0  0  0  0  0  0  0  0
   -6.7418   12.4707  -12.2603 O   0  0  0  0  0  0  0  0  0  0  0  0
   -7.8151   10.8772  -11.3836 O   0  0  0  0  0  0  0  0  0  0  0  0
    0.2109   16.7525  -11.3930 H   0  0  0  0  0  0  0  0  0  0  0  0
   -6.4516   16.4950   -9.8018 C   0  0  0  0  0  0  0  0  0  0  0  0
   -6.9678   17.3194  -11.3282 S   0  0  0  0  0  0  0  0  0  0  0  0
   -7.2403   18.9016  -10.7340 C   0  0  0  0  0  0  0  0  0  0  0  0
   -6.5311   19.3513   -9.8583 O   0  0  0  0  0  0  0  0  0  0  0  0
   -8.0002   20.1825  -12.7167 C   0  0  0  0  0  0  0  0  0  0  0  0
   -8.3611   19.7359  -11.2985 C   0  0  0  0  0  0  0  0  0  0  0  0
   -8.5616   20.8854  -10.4736 O   0  0  0  0  0  0  0  0  0  0  0  0
   -8.3607   19.7344  -11.3033 H   0  0  0  0  0  0  0  0  0  0  0  0
 30 31  1  0  0  0
 31 32  1  0  0  0
 31 28  1  0  0  0
 28 29  2  0  0  0
 28 27  1  0  0  0
 27 26  1  0  0  0
 26  1  1  0  0  0
  1  2  1  0  0  0
  1 17  1  0  0  0
  2  3  1  0  0  0
  3  4  2  0  0  0
  3  6  1  0  0  0
  6  7  1  0  0  0
  7  8  1  0  0  0
  8  9  1  0  0  0
  8 13  1  0  0  0
 13 14  2  0  0  0
 13 15  1  0  0  0
 17 18  2  0  0  0
 17 19  1  0  0  0
 19 21  1  0  0  0
 21 22  1  0  0  0
 22 23  2  0  0  0
 22 24  1  0  0  0
 32 33  1  0  0  0
  2  5  1  0  0  0
  9 10  1  0  0  0
  9 11  1  0  0  0
  9 12  1  0  0  0
 15 16  1  0  0  0
 19 20  1  0  0  0
 24 25  1  0  0  0
M  CHG 1   9   1
M  END
> <minimizedAffinity>
-6.79902

$$$$
ZINC000000339383


 20 21  0  0  0  0  0  0  0  0999 V2000
   -5.2758   14.7280   -8.5113 C   0  0  0  0  0  0  0  0  0  0  0  0
   -6.2774   13.2258   -8.6392 S   0  0  0  0  0  0  0  0  0  0  0  0
   -5.9231   13.7385  -13.5379 O   0  0  0  0  0  0  0  0  0  0  0  0
   -6.6512   13.6826  -12.5605 C   0  0  0  0  0  0  0  0  0  0  0  0
   -8.0457   13.7957  -12.6986 C   0  0  0  0  0  0  0  0  0  0  0  0
   -8.8275   13.7278  -11.5816 C   0  0  0  0  0  0  0  0  0  0  0  0
   -8.2698   13.5576  -10.3856 N   0  0  0  0  0  0  0  0  0  0  0  0
   -6.9623   13.4506  -10.2470 C   0  0  0  0  0  0  0  0  0  0  0  0
   -6.1335   13.5054  -11.3262 N   0  0  0  0  0  0  0  0  0  0  0  0
   -5.9270   13.7406  -13.5356 H   0  0  0  0  0  0  0  0  0  0  0  0
   -6.0112   15.7597   -7.6537 C   0  0  0  0  0  0  0  0  0  0  0  0
   -6.5575   16.8506   -8.5384 C   0  0  0  0  0  0  0  0  0  0  0  0
   -7.4160   17.7995   -8.0156 C   0  0  0  0  0  0  0  0  0  0  0  0
   -7.9171   18.8001   -8.8273 C   0  0  0  0  0  0  0  0  0  0  0  0
   -7.5592   18.8520  -10.1615 C   0  0  0  0  0  0  0  0  0  0  0  0
   -6.6996   17.9038  -10.6839 C   0  0  0  0  0  0  0  0  0  0  0  0
   -6.1956   16.9055   -9.8714 C   0  0  0  0  0  0  0  0  0  0  0  0
   -8.0961   19.9231  -11.0306 N   0  0  0  0  0  0  0  0  0  0  0  0
   -8.6095   20.9099  -10.5345 O   0  0  0  0  0  0  0  0  0  0  0  0
   -8.0246   19.8177  -12.2420 O   0  0  0  0  0  0  0  0  0  0  0  0
  3  4  2  0  0  0
  4  9  1  0  0  0
  4  5  1  0  0  0
  5  6  2  0  0  0
  6  7  1  0  0  0
  7  8  2  0  0  0
  8  2  1  0  0  0
  8  9  1  0  0  0
  2  1  1  0  0  0
  1 11  1  0  0  0
 11 12  1  0  0  0
 12 17  1  0  0  0
 12 13  2  0  0  0
 13 14  1  0  0  0
 14 15  2  0  0  0
 15 18  1  0  0  0
 15 16  1  0  0  0
 18 19  1  0  0  0
 18 20  2  0  0  0
 16 17  2  0  0  0
  9 10  1  0  0  0
M  CHG 1  18   1
M  CHG 1  19  -1
M  END
> <minimizedAffinity>
-7.04618

$$$$
ZINC000256047965


 26 28  0  0  0  0  0  0  0  0999 V2000
   -9.5239   18.9768   -5.5435 C   0  0  0  0  0  0  0  0  0  0  0  0
   -8.8793   19.4413   -6.5944 N   0  0  0  0  0  0  0  0  0  0  0  0
   -9.0450   18.5096   -7.6273 N   0  0  0  0  0  0  0  0  0  0  0  0
   -9.7622   17.5306   -7.1999 N   0  0  0  0  0  0  0  0  0  0  0  0
  -10.0885   17.7407   -5.9346 C   0  0  0  0  0  0  0  0  0  0  0  0
   -8.8855   21.8992   -0.8570 C   0  0  0  0  0  0  0  0  0  0  0  0
   -8.7318   21.2886   -2.1842 N   0  0  0  0  0  0  0  0  0  0  0  0
   -9.8722   21.6637   -3.0305 C   0  0  0  0  0  0  0  0  0  0  0  0
   -9.7031   21.0432   -4.4190 C   0  0  0  0  0  0  0  0  0  0  0  0
   -9.6245   19.5810   -4.2929 N   0  0  0  0  0  0  0  0  0  0  0  0
   -8.5020   19.1912   -3.4279 C   0  0  0  0  0  0  0  0  0  0  0  0
   -8.6815   19.8269   -2.0475 C   0  0  0  0  0  0  0  0  0  0  0  0
   -7.5176   18.1056   -1.3324 H   0  0  0  0  0  0  0  0  0  0  0  0
   -8.5144   18.6250   -8.9185 C   0  0  0  0  0  0  0  0  0  0  0  0
   -8.9740   19.6179   -9.7734 C   0  0  0  0  0  0  0  0  0  0  0  0
   -8.4484   19.7294  -11.0459 C   0  0  0  0  0  0  0  0  0  0  0  0
   -7.4657   18.8535  -11.4687 C   0  0  0  0  0  0  0  0  0  0  0  0
   -7.0057   17.8634  -10.6195 C   0  0  0  0  0  0  0  0  0  0  0  0
   -7.5233   17.7500   -9.3445 C   0  0  0  0  0  0  0  0  0  0  0  0
   -7.0306   16.6899   -8.4364 N   0  0  0  0  0  0  0  0  0  0  0  0
   -6.1913   16.9519   -7.5934 O   0  0  0  0  0  0  0  0  0  0  0  0
   -7.4645   15.5559   -8.5319 O   0  0  0  0  0  0  0  0  0  0  0  0
  -10.9003   16.8523   -5.0896 C   0  0  0  0  0  0  0  0  0  0  0  0
  -10.3814   15.8931   -4.5350 O   0  0  0  0  0  0  0  0  0  0  0  0
  -12.0947   17.0724   -4.9411 O   0  0  0  0  0  0  0  0  0  0  0  0
  -13.1512   22.1179   -4.4973 H   0  0  0  0  0  0  0  0  0  0  0  0
  6  7  1  0  0  0
  7 12  1  0  0  0
  7  8  1  0  0  0
  8  9  1  0  0  0
  9 10  1  0  0  0
 10  1  1  0  0  0
 10 11  1  0  0  0
  1  5  1  0  0  0
  1  2  2  0  0  0
  2  3  1  0  0  0
  3 14  1  0  0  0
  3  4  1  0  0  0
 14 19  1  0  0  0
 14 15  2  0  0  0
 15 16  1  0  0  0
 16 17  2  0  0  0
 17 18  1  0  0  0
 18 19  2  0  0  0
 19 20  1  0  0  0
 20 21  1  0  0  0
 20 22  2  0  0  0
  4  5  2  0  0  0
  5 23  1  0  0  0
 23 24  2  0  0  0
 23 25  1  0  0  0
 11 12  1  0  0  0
  7 13  1  0  0  0
 25 26  1  0  0  0
M  CHG 1   7   1
M  CHG 1  20   1
M  CHG 1  21  -1
M  END
> <minimizedAffinity>
-7.21519

$$$$
ZINC000013555999


 34 36  0  0  0  0  0  0  0  0999 V2000
   -9.1466   19.6412  -10.1928 C   0  0  0  0  0  0  0  0  0  0  0  0
   -8.8041   20.3227   -8.9420 N   0  0  0  0  0  0  0  0  0  0  0  0
  -10.3237   15.7485   -3.0304 H   0  0  0  0  0  0  0  0  0  0  0  0
   -9.4857   16.3306   -4.1407 C   0  0  0  0  0  0  0  0  0  0  0  0
   -9.2289   15.6369   -5.3260 C   0  0  0  0  0  0  0  0  0  0  0  0
   -9.0450   16.2995   -6.5005 C   0  0  0  0  0  0  0  0  0  0  0  0
   -9.1133   17.7027   -6.5315 C   0  0  0  0  0  0  0  0  0  0  0  0
   -8.9354   18.3698   -7.6787 N   0  0  0  0  0  0  0  0  0  0  0  0
   -8.9954   19.6824   -7.7304 C   0  0  0  0  0  0  0  0  0  0  0  0
   -9.2522   20.4532   -6.5715 C   0  0  0  0  0  0  0  0  0  0  0  0
   -9.4443   19.8116   -5.3555 C   0  0  0  0  0  0  0  0  0  0  0  0
   -9.3744   18.4070   -5.3290 C   0  0  0  0  0  0  0  0  0  0  0  0
   -9.5646   17.6947   -4.1337 C   0  0  0  0  0  0  0  0  0  0  0  0
  -10.1018   14.2851   -3.0966 C   0  0  0  0  0  0  0  0  0  0  0  0
   -9.6645   15.6409   -2.9830 O   0  0  0  0  0  0  0  0  0  0  0  0
   -9.3138   21.8815   -6.6527 C   0  0  0  0  0  0  0  0  0  0  0  0
   -9.3627   23.0147   -6.7172 N   0  0  0  0  0  0  0  0  0  0  0  0
   -7.9439   19.6748  -11.1379 C   0  0  0  0  0  0  0  0  0  0  0  0
   -6.8311   18.9336  -10.5388 N   0  0  0  0  0  0  0  0  0  0  0  0
   -8.8009   29.1337   -8.9452 H   0  0  0  0  0  0  0  0  0  0  0  0
   -6.6701   17.6236  -10.8108 C   0  0  0  0  0  0  0  0  0  0  0  0
   -6.1028   17.1321  -12.3495 S   0  0  0  0  0  0  0  0  0  0  0  0
   -6.9556   16.7001   -9.8714 N   0  0  0  0  0  0  0  0  0  0  0  0
  -13.4013   19.7706  -20.3283 H   0  0  0  0  0  0  0  0  0  0  0  0
   -6.0553   16.5126   -8.7311 C   0  0  0  0  0  0  0  0  0  0  0  0
   -5.7799   15.0199   -8.5388 C   0  0  0  0  0  0  0  0  0  0  0  0
   -7.0216   14.2174   -8.9323 C   0  0  0  0  0  0  0  0  0  0  0  0
   -6.6868   13.3067  -10.0353 N   0  0  0  0  0  0  0  0  0  0  0  0
   -7.9149   12.9273  -10.7474 C   0  0  0  0  0  0  0  0  0  0  0  0
   -7.5634   11.9788  -11.8962 C   0  0  0  0  0  0  0  0  0  0  0  0
   -6.8853   10.8339  -11.3717 O   0  0  0  0  0  0  0  0  0  0  0  0
   -5.6939   11.1543  -10.6480 C   0  0  0  0  0  0  0  0  0  0  0  0
   -6.0417   12.1014   -9.4969 C   0  0  0  0  0  0  0  0  0  0  0  0
    4.5583   21.2681    0.2541 H   0  0  0  0  0  0  0  0  0  0  0  0
 14 15  1  0  0  0
 15  4  1  0  0  0
  4 13  2  0  0  0
  4  5  1  0  0  0
  5  6  2  0  0  0
  6  7  1  0  0  0
  7 12  2  0  0  0
  7  8  1  0  0  0
  8  9  2  0  0  0
  9  2  1  0  0  0
  9 10  1  0  0  0
  2  1  1  0  0  0
  1 18  1  0  0  0
 18 19  1  0  0  0
 19 21  1  0  0  0
 21 22  2  0  0  0
 21 23  1  0  0  0
 23 25  1  0  0  0
 25 26  1  0  0  0
 26 27  1  0  0  0
 27 28  1  0  0  0
 28 33  1  0  0  0
 28 29  1  0  0  0
 29 30  1  0  0  0
 30 31  1  0  0  0
 31 32  1  0  0  0
 32 33  1  0  0  0
 10 16  1  0  0  0
 10 11  2  0  0  0
 16 17  3  0  0  0
 11 12  1  0  0  0
 12 13  1  0  0  0
  2  3  1  0  0  0
 19 20  1  0  0  0
 23 24  1  0  0  0
 28 34  1  0  0  0
M  CHG 1  28   1
M  END
> <minimizedAffinity>
-6.46608

$$$$
ZINC000197223896


 31 33  0  0  0  0  0  0  0  0999 V2000
   -8.1114   20.4076  -10.0669 N   0  0  0  0  0  0  0  0  0  0  0  0
   -7.6838   19.1581  -10.4794 C   0  0  0  0  0  0  0  0  0  0  0  0
   -7.7787   18.0499   -9.6281 C   0  0  0  0  0  0  0  0  0  0  0  0
   -8.2640   17.8285   -8.2588 C   0  0  0  0  0  0  0  0  0  0  0  0
   -8.0844   16.5079   -7.9958 C   0  0  0  0  0  0  0  0  0  0  0  0
   -7.5300   15.8946   -9.0846 N   0  0  0  0  0  0  0  0  0  0  0  0
   -7.3318   16.8006  -10.0917 C   0  0  0  0  0  0  0  0  0  0  0  0
   -6.8346   16.7210  -11.3254 N   0  0  0  0  0  0  0  0  0  0  0  0
   -6.7641   17.7880  -12.0916 C   0  0  0  0  0  0  0  0  0  0  0  0
   -7.1774   18.9783  -11.6964 N   0  0  0  0  0  0  0  0  0  0  0  0
   -7.6875   19.1607  -10.4771 H   0  0  0  0  0  0  0  0  0  0  0  0
   -7.6875   19.1607  -10.4771 H   0  0  0  0  0  0  0  0  0  0  0  0
   -7.1963   14.4702   -9.1630 C   0  0  0  0  0  0  0  0  0  0  0  0
   -5.6855   14.3003   -9.4311 C   0  0  0  0  0  0  0  0  0  0  0  0
   -5.6592   13.1071  -10.4248 C   0  0  0  0  0  0  0  0  0  0  0  0
   -6.9657   13.3572  -11.2194 C   0  0  0  0  0  0  0  0  0  0  0  0
   -7.9019   13.8652  -10.2529 O   0  0  0  0  0  0  0  0  0  0  0  0
   -7.4801   12.0481  -11.8214 C   0  0  0  0  0  0  0  0  0  0  0  0
   -7.7571   11.1179  -10.7725 O   0  0  0  0  0  0  0  0  0  0  0  0
   -2.3548   16.9247   -7.5548 H   0  0  0  0  0  0  0  0  0  0  0  0
   -8.8175   18.8109   -7.3760 C   0  0  0  0  0  0  0  0  0  0  0  0
   -9.2712   19.6163   -6.6522 C   0  0  0  0  0  0  0  0  0  0  0  0
   -9.8401   20.6260   -5.7448 C   0  0  0  0  0  0  0  0  0  0  0  0
   -9.2082   21.9229   -5.9995 N   0  0  0  0  0  0  0  0  0  0  0  0
   -9.8697   23.0623   -5.7157 C   0  0  0  0  0  0  0  0  0  0  0  0
  -10.9883   23.0140   -5.2495 O   0  0  0  0  0  0  0  0  0  0  0  0
   -8.6057   15.3963   -6.2942 H   0  0  0  0  0  0  0  0  0  0  0  0
   -9.2196   24.3964   -5.9778 C   0  0  0  0  0  0  0  0  0  0  0  0
   -9.2579   25.1706   -4.8132 F   0  0  0  0  0  0  0  0  0  0  0  0
   -7.8893   24.1991   -6.3631 F   0  0  0  0  0  0  0  0  0  0  0  0
   -9.9081   25.0578   -7.0004 F   0  0  0  0  0  0  0  0  0  0  0  0
  1  2  1  0  0  0
  2 10  2  0  0  0
  2  3  1  0  0  0
  3  7  2  0  0  0
  3  4  1  0  0  0
  4 21  1  0  0  0
  4  5  2  0  0  0
 21 22  3  0  0  0
 22 23  1  0  0  0
 23 24  1  0  0  0
 24 25  1  0  0  0
 25 26  2  0  0  0
 25 28  1  0  0  0
 28 29  1  0  0  0
 28 30  1  0  0  0
 28 31  1  0  0  0
  5  6  1  0  0  0
  6 13  1  0  0  0
  6  7  1  0  0  0
 13 17  1  0  0  0
 13 14  1  0  0  0
 14 15  1  0  0  0
 15 16  1  0  0  0
 16 18  1  0  0  0
 16 17  1  0  0  0
 18 19  1  0  0  0
  7  8  1  0  0  0
  8  9  2  0  0  0
  9 10  1  0  0  0
  1 11  1  0  0  0
  1 12  1  0  0  0
 24 27  1  0  0  0
 19 20  1  0  0  0
M  END
> <minimizedAffinity>
-8.27036

$$$$
ZINC000017108906


 23 24  0  0  0  0  0  0  0  0999 V2000
   -8.2911   18.8997   -7.3609 C   0  0  0  0  0  0  0  0  0  0  0  0
   -7.7250   18.3534   -8.4412 C   0  0  0  0  0  0  0  0  0  0  0  0
   -6.9020   17.2272   -8.3142 N   0  0  0  0  0  0  0  0  0  0  0  0
   -6.5717   16.5201   -9.4156 C   0  0  0  0  0  0  0  0  0  0  0  0
   -5.8588   15.5385   -9.3221 O   0  0  0  0  0  0  0  0  0  0  0  0
   -7.0798   16.9439  -10.7296 C   0  0  0  0  0  0  0  0  0  0  0  0
   -7.0098   16.1048  -11.7895 C   0  0  0  0  0  0  0  0  0  0  0  0
   -7.6348   18.2184  -10.8774 N   0  0  0  0  0  0  0  0  0  0  0  0
   -7.9665   18.9284   -9.7799 C   0  0  0  0  0  0  0  0  0  0  0  0
   -8.4527   20.0375   -9.8906 O   0  0  0  0  0  0  0  0  0  0  0  0
  -10.5349   19.7171   -8.1373 H   0  0  0  0  0  0  0  0  0  0  0  0
  -10.5349   19.7171   -8.1373 H   0  0  0  0  0  0  0  0  0  0  0  0
   -6.6208   14.7002  -11.5911 C   0  0  0  0  0  0  0  0  0  0  0  0
   -7.5616   13.7664  -11.1440 C   0  0  0  0  0  0  0  0  0  0  0  0
   -7.1891   12.4517  -10.9610 C   0  0  0  0  0  0  0  0  0  0  0  0
   -5.8881   12.0549  -11.2178 C   0  0  0  0  0  0  0  0  0  0  0  0
   -4.9515   12.9726  -11.6607 C   0  0  0  0  0  0  0  0  0  0  0  0
   -5.3095   14.2900  -11.8538 C   0  0  0  0  0  0  0  0  0  0  0  0
   -5.4966   10.6414  -11.0181 N   0  0  0  0  0  0  0  0  0  0  0  0
   -5.3213   10.2112   -9.8921 O   0  0  0  0  0  0  0  0  0  0  0  0
   -5.3497    9.9084  -11.9797 O   0  0  0  0  0  0  0  0  0  0  0  0
   -9.4054   20.8406   -6.2929 C   0  0  0  0  0  0  0  0  0  0  0  0
   -9.3824   19.9267   -7.5199 C   0  0  0  0  0  0  0  0  0  0  0  0
 22 23  1  0  0  0
 23  1  1  0  0  0
  1  2  2  0  0  0
  2  9  1  0  0  0
  2  3  1  0  0  0
  3  4  1  0  0  0
  4  5  2  0  0  0
  4  6  1  0  0  0
  6  7  2  0  0  0
  6  8  1  0  0  0
  7 13  1  0  0  0
 13 18  1  0  0  0
 13 14  2  0  0  0
 14 15  1  0  0  0
 15 16  2  0  0  0
 16 19  1  0  0  0
 16 17  1  0  0  0
 19 20  1  0  0  0
 19 21  2  0  0  0
 17 18  2  0  0  0
  8  9  1  0  0  0
  9 10  2  0  0  0
  3 11  1  0  0  0
  8 12  1  0  0  0
M  CHG 1  19   1
M  CHG 1  20  -1
M  END
> <minimizedAffinity>
-7.51274

$$$$
ZINC000104611026


 34 35  0  0  0  0  0  0  0  0999 V2000
   -8.9882   17.9775   -5.9289 C   0  0  0  0  0  0  0  0  0  0  0  0
   -8.8938   18.0675   -7.4303 C   0  0  0  0  0  0  0  0  0  0  0  0
   -9.8641   17.8207   -8.1147 O   0  0  0  0  0  0  0  0  0  0  0  0
   -7.7311   18.4225   -8.0123 N   0  0  0  0  0  0  0  0  0  0  0  0
  -11.1052   16.8906    1.1042 H   0  0  0  0  0  0  0  0  0  0  0  0
   -7.6710   18.6106   -9.3976 C   0  0  0  0  0  0  0  0  0  0  0  0
   -7.1657   17.6079  -10.2144 C   0  0  0  0  0  0  0  0  0  0  0  0
   -7.1076   17.7967  -11.5816 C   0  0  0  0  0  0  0  0  0  0  0  0
   -7.5523   18.9823  -12.1368 C   0  0  0  0  0  0  0  0  0  0  0  0
   -8.0557   19.9831  -11.3257 C   0  0  0  0  0  0  0  0  0  0  0  0
   -8.1218   19.7983   -9.9588 C   0  0  0  0  0  0  0  0  0  0  0  0
   -8.6705   20.8894   -9.0759 C   0  0  0  0  0  0  0  0  0  0  0  0
   -6.4666   16.5249  -12.6192 S   0  0  0  0  0  0  0  0  0  0  0  0
   -5.0334   16.0269  -11.9559 N   0  0  0  0  0  0  0  0  0  0  0  0
   -7.3626   15.4276  -12.5090 O   0  0  0  0  0  0  0  0  0  0  0  0
   -6.1426   17.1425  -13.8573 O   0  0  0  0  0  0  0  0  0  0  0  0
   -3.7164   29.6797  -15.5743 H   0  0  0  0  0  0  0  0  0  0  0  0
   -3.7164   29.6797  -15.5743 H   0  0  0  0  0  0  0  0  0  0  0  0
   -9.2247   16.2505   -5.4416 S   0  0  0  0  0  0  0  0  0  0  0  0
   -6.9839   14.2016   -8.7242 C   0  0  0  0  0  0  0  0  0  0  0  0
   -8.3639   14.3444   -8.7661 C   0  0  0  0  0  0  0  0  0  0  0  0
   -9.0660   13.8579   -9.8173 O   0  0  0  0  0  0  0  0  0  0  0  0
   -8.9973   14.9630   -7.7654 N   0  0  0  0  0  0  0  0  0  0  0  0
   -8.3371   15.4440   -6.7325 C   0  0  0  0  0  0  0  0  0  0  0  0
   -6.9829   15.3310   -6.6403 N   0  0  0  0  0  0  0  0  0  0  0  0
   -6.2871   14.7122   -7.6171 C   0  0  0  0  0  0  0  0  0  0  0  0
   -5.0728   14.6059   -7.5438 O   0  0  0  0  0  0  0  0  0  0  0  0
   -4.9710   13.3064   -9.5464 H   0  0  0  0  0  0  0  0  0  0  0  0
   -4.9710   13.3064   -9.5464 H   0  0  0  0  0  0  0  0  0  0  0  0
   -5.5939   11.5085  -10.9715 C   0  0  0  0  0  0  0  0  0  0  0  0
   -6.2327   12.2065   -9.7985 C   0  0  0  0  0  0  0  0  0  0  0  0
   -6.6893   11.5568   -8.8813 O   0  0  0  0  0  0  0  0  0  0  0  0
   -6.2968   13.5523   -9.7685 N   0  0  0  0  0  0  0  0  0  0  0  0
   -7.0681   12.8081  -10.6164 H   0  0  0  0  0  0  0  0  0  0  0  0
 30 31  1  0  0  0
 31 32  2  0  0  0
 31 33  1  0  0  0
 33 20  1  0  0  0
 20 26  1  0  0  0
 20 21  2  0  0  0
 21 22  1  0  0  0
 21 23  1  0  0  0
 23 24  2  0  0  0
 24 19  1  0  0  0
 24 25  1  0  0  0
 19  1  1  0  0  0
  1  2  1  0  0  0
  2  3  2  0  0  0
  2  4  1  0  0  0
  4  6  1  0  0  0
  6 11  1  0  0  0
  6  7  2  0  0  0
  7  8  1  0  0  0
  8 13  1  0  0  0
  8  9  2  0  0  0
 13 14  1  0  0  0
 13 15  2  0  0  0
 13 16  2  0  0  0
  9 10  1  0  0  0
 10 11  2  0  0  0
 11 12  1  0  0  0
 25 26  1  0  0  0
 26 27  2  0  0  0
 33 34  1  0  0  0
 22 28  1  0  0  0
  4  5  1  0  0  0
 14 17  1  0  0  0
 14 18  1  0  0  0
 25 29  1  0  0  0
M  END
> <minimizedAffinity>
-8.51653

$$$$
ZINC000005999141


 29 31  0  0  0  0  0  0  0  0999 V2000
   -7.5829   17.2120   -9.5789 C   0  0  0  0  0  0  0  0  0  0  0  0
   -7.7158   18.5434   -9.9271 C   0  0  0  0  0  0  0  0  0  0  0  0
   -8.2764   19.4461   -9.0136 C   0  0  0  0  0  0  0  0  0  0  0  0
   -8.4179   20.7530   -9.3296 O   0  0  0  0  0  0  0  0  0  0  0  0
   -8.6899   18.9579   -7.7571 C   0  0  0  0  0  0  0  0  0  0  0  0
   -9.2641   19.8238   -6.7937 C   0  0  0  0  0  0  0  0  0  0  0  0
   -9.4231   21.1218   -7.0625 O   0  0  0  0  0  0  0  0  0  0  0  0
   -9.6622   19.3044   -5.5598 C   0  0  0  0  0  0  0  0  0  0  0  0
   -9.4950   17.9540   -5.2872 C   0  0  0  0  0  0  0  0  0  0  0  0
   -8.9324   17.1012   -6.2304 C   0  0  0  0  0  0  0  0  0  0  0  0
   -8.5276   17.5873   -7.4610 C   0  0  0  0  0  0  0  0  0  0  0  0
   -7.9858   16.7590   -8.3795 O   0  0  0  0  0  0  0  0  0  0  0  0
   -6.2929   13.2115  -11.0899 H   0  0  0  0  0  0  0  0  0  0  0  0
   -7.2354   14.4169  -12.0602 C   0  0  0  0  0  0  0  0  0  0  0  0
   -7.7939   15.2984  -11.1558 C   0  0  0  0  0  0  0  0  0  0  0  0
   -6.9931   16.2693  -10.5447 C   0  0  0  0  0  0  0  0  0  0  0  0
   -5.6312   16.3421  -10.8529 C   0  0  0  0  0  0  0  0  0  0  0  0
   -5.0813   15.4587  -11.7567 C   0  0  0  0  0  0  0  0  0  0  0  0
   -5.8752   14.4922  -12.3586 C   0  0  0  0  0  0  0  0  0  0  0  0
   -5.3279   13.6241  -13.2486 O   0  0  0  0  0  0  0  0  0  0  0  0
   -7.2918   15.0072  -13.4525 H   0  0  0  0  0  0  0  0  0  0  0  0
   -9.3933   13.7854  -12.8352 C   0  0  0  0  0  0  0  0  0  0  0  0
   -8.0108   13.4716  -12.6557 O   0  0  0  0  0  0  0  0  0  0  0  0
   -7.3047   18.9748  -11.1502 O   0  0  0  0  0  0  0  0  0  0  0  0
   -8.2744   19.6378  -11.9640 C   0  0  0  0  0  0  0  0  0  0  0  0
  -10.2161   20.1244   -4.6229 O   0  0  0  0  0  0  0  0  0  0  0  0
   -9.3347   20.6812   -3.6455 C   0  0  0  0  0  0  0  0  0  0  0  0
   -9.8860   17.4591   -4.0842 O   0  0  0  0  0  0  0  0  0  0  0  0
  -11.2248   16.9689   -3.9886 C   0  0  0  0  0  0  0  0  0  0  0  0
 22 23  1  0  0  0
 23 14  1  0  0  0
 14 19  2  0  0  0
 14 15  1  0  0  0
 15 16  2  0  0  0
 16  1  1  0  0  0
 16 17  1  0  0  0
  1 12  1  0  0  0
  1  2  2  0  0  0
  2 24  1  0  0  0
  2  3  1  0  0  0
 24 25  1  0  0  0
  3  4  1  0  0  0
  3  5  2  0  0  0
  5 11  1  0  0  0
  5  6  1  0  0  0
  6  7  2  0  0  0
  6  8  1  0  0  0
  8 26  1  0  0  0
  8  9  2  0  0  0
 26 27  1  0  0  0
  9 28  1  0  0  0
  9 10  1  0  0  0
 28 29  1  0  0  0
 10 11  2  0  0  0
 11 12  1  0  0  0
 17 18  2  0  0  0
 18 19  1  0  0  0
 19 20  1  0  0  0
  4 13  1  0  0  0
 20 21  1  0  0  0
M  END
> <minimizedAffinity>
-8.09358

$$$$
ZINC000042379873


 25 27  0  0  0  0  0  0  0  0999 V2000
   -9.0758   19.3900   -5.5166 C   0  0  0  0  0  0  0  0  0  0  0  0
   -9.1568   18.7327   -4.4975 O   0  0  0  0  0  0  0  0  0  0  0  0
   -8.5600   18.8403   -6.6339 N   0  0  0  0  0  0  0  0  0  0  0  0
   -9.7120   23.4511   -7.9604 H   0  0  0  0  0  0  0  0  0  0  0  0
  -10.5869   22.4986   -4.4453 N   0  0  0  0  0  0  0  0  0  0  0  0
  -10.1623   21.2876   -4.4823 N   0  0  0  0  0  0  0  0  0  0  0  0
   -9.5433   20.7930   -5.5307 C   0  0  0  0  0  0  0  0  0  0  0  0
   -9.3230   21.5988   -6.6737 C   0  0  0  0  0  0  0  0  0  0  0  0
   -9.7680   22.8871   -6.6501 C   0  0  0  0  0  0  0  0  0  0  0  0
  -10.4281   23.3381   -5.4854 C   0  0  0  0  0  0  0  0  0  0  0  0
  -10.8433   24.4831   -5.4194 O   0  0  0  0  0  0  0  0  0  0  0  0
  -10.2495   23.1477   -2.1115 C   0  0  0  0  0  0  0  0  0  0  0  0
  -11.2684   22.9782   -3.2403 C   0  0  0  0  0  0  0  0  0  0  0  0
   -8.0969   17.4505   -6.6199 C   0  0  0  0  0  0  0  0  0  0  0  0
   -7.4349   17.1285   -7.9348 C   0  0  0  0  0  0  0  0  0  0  0  0
   -6.6060   16.0888   -8.0767 C   0  0  0  0  0  0  0  0  0  0  0  0
   -6.0468   16.0539   -9.7479 S   0  0  0  0  0  0  0  0  0  0  0  0
   -7.0141   17.4845  -10.0961 C   0  0  0  0  0  0  0  0  0  0  0  0
   -7.6405   17.8481   -9.0138 N   0  0  0  0  0  0  0  0  0  0  0  0
   -7.1052   18.1603  -11.4082 C   0  0  0  0  0  0  0  0  0  0  0  0
   -7.7752   19.3790  -11.5237 C   0  0  0  0  0  0  0  0  0  0  0  0
   -7.8562   20.0046  -12.7507 C   0  0  0  0  0  0  0  0  0  0  0  0
   -7.2752   19.4261  -13.8652 C   0  0  0  0  0  0  0  0  0  0  0  0
   -6.6096   18.2180  -13.7573 C   0  0  0  0  0  0  0  0  0  0  0  0
   -6.5165   17.5850  -12.5350 C   0  0  0  0  0  0  0  0  0  0  0  0
 12 13  1  0  0  0
 13  5  1  0  0  0
  5 10  1  0  0  0
  5  6  1  0  0  0
  6  7  2  0  0  0
  7  1  1  0  0  0
  7  8  1  0  0  0
  1  2  2  0  0  0
  1  3  1  0  0  0
  3 14  1  0  0  0
 14 15  1  0  0  0
 15 19  1  0  0  0
 15 16  2  0  0  0
 16 17  1  0  0  0
 17 18  1  0  0  0
 18 20  1  0  0  0
 18 19  2  0  0  0
 20 25  1  0  0  0
 20 21  2  0  0  0
 21 22  1  0  0  0
 22 23  2  0  0  0
 23 24  1  0  0  0
 24 25  2  0  0  0
  8  9  2  0  0  0
  9 10  1  0  0  0
 10 11  2  0  0  0
  3  4  1  0  0  0
M  END
> <minimizedAffinity>
-7.44680

$$$$
ZINC000012561226


 35 38  0  0  0  0  0  0  0  0999 V2000
   -8.2059   17.7877   -9.6753 N   0  0  0  0  0  0  0  0  0  0  0  0
   -8.0216   18.4075   -8.4928 C   0  0  0  0  0  0  0  0  0  0  0  0
   -7.1403   18.0387   -7.7457 O   0  0  0  0  0  0  0  0  0  0  0  0
   -6.1762   15.2794  -11.3983 H   0  0  0  0  0  0  0  0  0  0  0  0
   -6.2347   13.1584  -10.1473 C   0  0  0  0  0  0  0  0  0  0  0  0
   -6.4844   14.6401  -10.2633 C   0  0  0  0  0  0  0  0  0  0  0  0
   -5.7476   15.5256  -10.9536 C   0  0  0  0  0  0  0  0  0  0  0  0
   -4.5138   15.1973  -11.7542 C   0  0  0  0  0  0  0  0  0  0  0  0
   -6.2939   16.7736  -10.8160 N   0  0  0  0  0  0  0  0  0  0  0  0
   -7.3997   16.7162  -10.0298 C   0  0  0  0  0  0  0  0  0  0  0  0
   -7.5839   15.3944   -9.6491 C   0  0  0  0  0  0  0  0  0  0  0  0
   -8.6280   14.8739   -8.8187 C   0  0  0  0  0  0  0  0  0  0  0  0
   -9.4562   14.4610   -8.1598 N   0  0  0  0  0  0  0  0  0  0  0  0
   -5.7626   17.9939  -11.4284 C   0  0  0  0  0  0  0  0  0  0  0  0
   -6.3782   18.1810  -12.7912 C   0  0  0  0  0  0  0  0  0  0  0  0
   -7.0168   19.2841  -13.2211 C   0  0  0  0  0  0  0  0  0  0  0  0
   -7.4296   19.0271  -14.5487 C   0  0  0  0  0  0  0  0  0  0  0  0
   -7.0186   17.7824  -14.8507 C   0  0  0  0  0  0  0  0  0  0  0  0
   -6.3774   17.2769  -13.7843 O   0  0  0  0  0  0  0  0  0  0  0  0
   -8.9107   19.5588   -8.0989 C   0  0  0  0  0  0  0  0  0  0  0  0
   -9.1348   19.5300   -6.6473 N   0  0  0  0  0  0  0  0  0  0  0  0
   -9.9836   18.3944   -6.2686 C   0  0  0  0  0  0  0  0  0  0  0  0
  -10.2843   18.4871   -4.7670 C   0  0  0  0  0  0  0  0  0  0  0  0
  -11.0285   19.6887   -4.5405 O   0  0  0  0  0  0  0  0  0  0  0  0
  -10.5751   20.8140   -5.1582 C   0  0  0  0  0  0  0  0  0  0  0  0
  -11.0516   22.0460   -4.7343 C   0  0  0  0  0  0  0  0  0  0  0  0
  -10.6157   23.2074   -5.3439 C   0  0  0  0  0  0  0  0  0  0  0  0
   -9.7025   23.1442   -6.3795 C   0  0  0  0  0  0  0  0  0  0  0  0
   -9.2213   21.9219   -6.8055 C   0  0  0  0  0  0  0  0  0  0  0  0
   -9.6526   20.7482   -6.1960 C   0  0  0  0  0  0  0  0  0  0  0  0
  -11.0970   17.2938   -4.3352 C   0  0  0  0  0  0  0  0  0  0  0  0
  -10.6519   16.4993   -3.3417 N   0  0  0  0  0  0  0  0  0  0  0  0
  -12.1516   17.0485   -4.8815 O   0  0  0  0  0  0  0  0  0  0  0  0
   -6.4950   15.4453  -11.4291 H   0  0  0  0  0  0  0  0  0  0  0  0
   -6.4950   15.4453  -11.4291 H   0  0  0  0  0  0  0  0  0  0  0  0
  5  6  1  0  0  0
  6 11  1  0  0  0
  6  7  2  0  0  0
  7  8  1  0  0  0
  7  9  1  0  0  0
  9 14  1  0  0  0
  9 10  1  0  0  0
 14 15  1  0  0  0
 15 19  1  0  0  0
 15 16  2  0  0  0
 16 17  1  0  0  0
 17 18  2  0  0  0
 18 19  1  0  0  0
 10  1  1  0  0  0
 10 11  2  0  0  0
  1  2  1  0  0  0
  2  3  2  0  0  0
  2 20  1  0  0  0
 20 21  1  0  0  0
 21 30  1  0  0  0
 21 22  1  0  0  0
 22 23  1  0  0  0
 23 31  1  0  0  0
 23 24  1  0  0  0
 31 32  1  0  0  0
 31 33  2  0  0  0
 24 25  1  0  0  0
 25 30  2  0  0  0
 25 26  1  0  0  0
 26 27  2  0  0  0
 27 28  1  0  0  0
 28 29  2  0  0  0
 29 30  1  0  0  0
 11 12  1  0  0  0
 12 13  3  0  0  0
  1  4  1  0  0  0
 32 34  1  0  0  0
 32 35  1  0  0  0
M  END
> <minimizedAffinity>
-8.27481

$$$$
ZINC000224588721


 33 35  0  0  0  0  0  0  0  0999 V2000
   -7.6251   19.3330   -8.6540 N   0  0  0  0  0  0  0  0  0  0  0  0
  -10.6958   13.2645  -10.2453 H   0  0  0  0  0  0  0  0  0  0  0  0
   -9.1440   18.9890   -8.0908 S   0  0  0  0  0  0  0  0  0  0  0  0
   -9.1025   17.6498   -7.6172 O   0  0  0  0  0  0  0  0  0  0  0  0
  -10.0523   19.4325   -9.0895 O   0  0  0  0  0  0  0  0  0  0  0  0
   -9.8525   21.6029   -4.4552 C   0  0  0  0  0  0  0  0  0  0  0  0
   -9.5284   20.2629   -4.2988 C   0  0  0  0  0  0  0  0  0  0  0  0
   -9.3135   19.4696   -5.4103 C   0  0  0  0  0  0  0  0  0  0  0  0
   -9.4201   20.0074   -6.6796 C   0  0  0  0  0  0  0  0  0  0  0  0
   -9.7432   21.3418   -6.8451 C   0  0  0  0  0  0  0  0  0  0  0  0
   -9.9660   22.1437   -5.7367 C   0  0  0  0  0  0  0  0  0  0  0  0
  -10.2934   23.4962   -5.9022 N   0  0  0  0  0  0  0  0  0  0  0  0
   -9.3161   24.4186   -6.0045 C   0  0  0  0  0  0  0  0  0  0  0  0
   -9.6663   25.8823   -6.0812 C   0  0  0  0  0  0  0  0  0  0  0  0
   -8.1545   24.0705   -6.0348 O   0  0  0  0  0  0  0  0  0  0  0  0
  -12.2040   21.9914   -4.1403 H   0  0  0  0  0  0  0  0  0  0  0  0
   -8.4515   23.1409   -2.5830 C   0  0  0  0  0  0  0  0  0  0  0  0
  -10.1269   22.6168   -3.0406 S   0  0  0  0  0  0  0  0  0  0  0  0
   -7.3954   19.4901  -10.0923 C   0  0  0  0  0  0  0  0  0  0  0  0
   -6.8297   18.2110  -10.6533 C   0  0  0  0  0  0  0  0  0  0  0  0
   -6.6392   18.0787  -12.0161 C   0  0  0  0  0  0  0  0  0  0  0  0
   -6.1204   16.9053  -12.5308 C   0  0  0  0  0  0  0  0  0  0  0  0
   -5.7915   15.8645  -11.6827 C   0  0  0  0  0  0  0  0  0  0  0  0
   -5.9806   15.9972  -10.3198 C   0  0  0  0  0  0  0  0  0  0  0  0
   -6.4960   17.1720   -9.8048 C   0  0  0  0  0  0  0  0  0  0  0  0
   -5.2263   14.5851  -12.2438 C   0  0  0  0  0  0  0  0  0  0  0  0
   -5.8633   13.4375  -11.5840 N   0  0  0  0  0  0  0  0  0  0  0  0
   -4.9496   12.2870  -11.6120 C   0  0  0  0  0  0  0  0  0  0  0  0
   -5.6154   11.0928  -10.9239 C   0  0  0  0  0  0  0  0  0  0  0  0
   -6.8511   10.7985  -11.5814 O   0  0  0  0  0  0  0  0  0  0  0  0
   -7.7665   11.8973  -11.6012 C   0  0  0  0  0  0  0  0  0  0  0  0
   -7.1047   13.0932  -12.2905 C   0  0  0  0  0  0  0  0  0  0  0  0
  -13.2402   23.2420  -15.2238 H   0  0  0  0  0  0  0  0  0  0  0  0
 17 18  1  0  0  0
 18  6  1  0  0  0
  6 11  2  0  0  0
  6  7  1  0  0  0
  7  8  2  0  0  0
  8  9  1  0  0  0
  9  3  1  0  0  0
  9 10  2  0  0  0
  3  4  2  0  0  0
  3  5  2  0  0  0
  3  1  1  0  0  0
  1 19  1  0  0  0
 19 20  1  0  0  0
 20 25  1  0  0  0
 20 21  2  0  0  0
 21 22  1  0  0  0
 22 23  2  0  0  0
 23 26  1  0  0  0
 23 24  1  0  0  0
 26 27  1  0  0  0
 27 32  1  0  0  0
 27 28  1  0  0  0
 28 29  1  0  0  0
 29 30  1  0  0  0
 30 31  1  0  0  0
 31 32  1  0  0  0
 24 25  2  0  0  0
 10 11  1  0  0  0
 11 12  1  0  0  0
 12 13  1  0  0  0
 13 14  1  0  0  0
 13 15  2  0  0  0
  1  2  1  0  0  0
 27 33  1  0  0  0
 12 16  1  0  0  0
M  CHG 1  27   1
M  END
> <minimizedAffinity>
-7.98422

$$$$
ZINC000014251205


 26 27  0  0  0  0  0  0  0  0999 V2000
   -8.7225   19.3863   -5.9740 C   0  0  0  0  0  0  0  0  0  0  0  0
   -8.3413   18.7752   -4.9953 O   0  0  0  0  0  0  0  0  0  0  0  0
   -8.6389   18.8225   -7.1953 N   0  0  0  0  0  0  0  0  0  0  0  0
   -9.0905   19.5522   -8.3885 C   0  0  0  0  0  0  0  0  0  0  0  0
   -7.9357   19.6058   -9.3963 C   0  0  0  0  0  0  0  0  0  0  0  0
   -7.3908   18.2506   -9.5588 N   0  0  0  0  0  0  0  0  0  0  0  0
   -7.3064   17.6872  -10.7803 C   0  0  0  0  0  0  0  0  0  0  0  0
   -7.7700   18.2605  -11.7479 O   0  0  0  0  0  0  0  0  0  0  0  0
   -6.9393   17.5209   -8.3657 C   0  0  0  0  0  0  0  0  0  0  0  0
   -8.0890   17.4695   -7.3585 C   0  0  0  0  0  0  0  0  0  0  0  0
   -6.6538   16.3792  -10.9433 C   0  0  0  0  0  0  0  0  0  0  0  0
   -7.2428   15.2243  -10.4325 C   0  0  0  0  0  0  0  0  0  0  0  0
   -6.5944   14.0019  -10.6066 C   0  0  0  0  0  0  0  0  0  0  0  0
   -5.4081   13.9472  -11.2644 C   0  0  0  0  0  0  0  0  0  0  0  0
   -4.8298   15.0656  -11.7635 N   0  0  0  0  0  0  0  0  0  0  0  0
   -5.4161   16.2703  -11.6286 C   0  0  0  0  0  0  0  0  0  0  0  0
   -4.8804   17.2655  -12.0849 O   0  0  0  0  0  0  0  0  0  0  0  0
   -7.8583   21.8992   -4.6533 H   0  0  0  0  0  0  0  0  0  0  0  0
   -7.2010   12.7615  -10.0732 N   0  0  0  0  0  0  0  0  0  0  0  0
   -7.0724   12.4782   -8.8957 O   0  0  0  0  0  0  0  0  0  0  0  0
   -7.8289   12.0242  -10.8119 O   0  0  0  0  0  0  0  0  0  0  0  0
   -9.2284   20.6266   -5.8383 O   0  0  0  0  0  0  0  0  0  0  0  0
  -10.9113   19.4709   -4.5107 C   0  0  0  0  0  0  0  0  0  0  0  0
  -10.2497   20.8146   -4.8234 C   0  0  0  0  0  0  0  0  0  0  0  0
  -11.3053   21.7954   -5.3378 C   0  0  0  0  0  0  0  0  0  0  0  0
   -9.6085   21.3754   -3.5525 C   0  0  0  0  0  0  0  0  0  0  0  0
 23 24  1  0  0  0
 24 25  1  0  0  0
 24 26  1  0  0  0
 24 22  1  0  0  0
 22  1  1  0  0  0
  1  2  2  0  0  0
  1  3  1  0  0  0
  3 10  1  0  0  0
  3  4  1  0  0  0
  4  5  1  0  0  0
  5  6  1  0  0  0
  6  7  1  0  0  0
  6  9  1  0  0  0
  7  8  2  0  0  0
  7 11  1  0  0  0
 11 16  1  0  0  0
 11 12  2  0  0  0
 12 13  1  0  0  0
 13 19  1  0  0  0
 13 14  2  0  0  0
 19 20  1  0  0  0
 19 21  2  0  0  0
 14 15  1  0  0  0
 15 16  1  0  0  0
 16 17  2  0  0  0
  9 10  1  0  0  0
 15 18  1  0  0  0
M  CHG 1  19   1
M  CHG 1  20  -1
M  END
> <minimizedAffinity>
-7.36457

$$$$
ZINC000534667656


 28 30  0  0  0  0  0  0  0  0999 V2000
   -6.9222   18.4416  -10.5249 N   0  0  0  0  0  0  0  0  0  0  0  0
   -7.4634   18.0022   -9.3715 C   0  0  0  0  0  0  0  0  0  0  0  0
   -7.2223   16.8780   -8.9762 O   0  0  0  0  0  0  0  0  0  0  0  0
   -8.2719   18.8090   -8.6560 N   0  0  0  0  0  0  0  0  0  0  0  0
   -8.7927   20.1776   -8.7930 C   0  0  0  0  0  0  0  0  0  0  0  0
   -8.8992   20.2322   -7.2627 C   0  0  0  0  0  0  0  0  0  0  0  0
   -9.0268   18.7060   -7.3981 C   0  0  0  0  0  0  0  0  0  0  0  0
   -4.9112   17.9010  -12.9936 H   0  0  0  0  0  0  0  0  0  0  0  0
   -6.0434   17.5646  -11.3026 C   0  0  0  0  0  0  0  0  0  0  0  0
   -6.8209   16.9815  -12.4843 C   0  0  0  0  0  0  0  0  0  0  0  0
   -6.6159   15.5278  -12.5359 N   0  0  0  0  0  0  0  0  0  0  0  0
   -7.8364   14.8453  -12.0862 C   0  0  0  0  0  0  0  0  0  0  0  0
   -7.6298   13.3307  -12.1575 C   0  0  0  0  0  0  0  0  0  0  0  0
   -6.4941   12.9533  -11.3043 N   0  0  0  0  0  0  0  0  0  0  0  0
   -6.2988   11.4974  -11.3016 C   0  0  0  0  0  0  0  0  0  0  0  0
   -5.2701   13.6482  -11.7272 C   0  0  0  0  0  0  0  0  0  0  0  0
   -5.4963   15.1601  -11.6591 C   0  0  0  0  0  0  0  0  0  0  0  0
   -6.1384   17.5359  -12.8330 H   0  0  0  0  0  0  0  0  0  0  0  0
   -7.0092   18.9642  -13.9929 C   0  0  0  0  0  0  0  0  0  0  0  0
   -6.3214   17.6134  -13.7851 C   0  0  0  0  0  0  0  0  0  0  0  0
  -10.0802   20.8758   -6.7802 O   0  0  0  0  0  0  0  0  0  0  0  0
   -9.9136   22.0366   -6.0934 C   0  0  0  0  0  0  0  0  0  0  0  0
   -9.0841   23.0282   -6.5962 C   0  0  0  0  0  0  0  0  0  0  0  0
   -8.9157   24.2078   -5.8965 C   0  0  0  0  0  0  0  0  0  0  0  0
   -9.5730   24.4007   -4.6959 C   0  0  0  0  0  0  0  0  0  0  0  0
  -10.4010   23.4129   -4.1914 C   0  0  0  0  0  0  0  0  0  0  0  0
  -11.2250   23.6583   -2.6833 Cl  0  0  0  0  0  0  0  0  0  0  0  0
  -10.5771   22.2339   -4.8911 C   0  0  0  0  0  0  0  0  0  0  0  0
 19 20  1  0  0  0
 20 10  1  0  0  0
 10  9  1  0  0  0
 10 11  1  0  0  0
  9  1  1  0  0  0
  1  2  1  0  0  0
  2  3  2  0  0  0
  2  4  1  0  0  0
  4  7  1  0  0  0
  4  5  1  0  0  0
  5  6  1  0  0  0
  6 21  1  0  0  0
  6  7  1  0  0  0
 21 22  1  0  0  0
 22 28  1  0  0  0
 22 23  2  0  0  0
 23 24  1  0  0  0
 24 25  2  0  0  0
 25 26  1  0  0  0
 26 27  1  0  0  0
 26 28  2  0  0  0
 11 17  1  0  0  0
 11 12  1  0  0  0
 12 13  1  0  0  0
 13 14  1  0  0  0
 14 15  1  0  0  0
 14 16  1  0  0  0
 16 17  1  0  0  0
  1  8  1  0  0  0
 11 18  1  0  0  0
M  CHG 1  11   1
M  END
> <minimizedAffinity>
-7.16785

$$$$
ZINC000059417378


 22 23  0  0  0  0  0  0  0  0999 V2000
   -7.1196   13.7858   -9.9114 S   0  0  0  0  0  0  0  0  0  0  0  0
   -7.9620   13.9053  -11.0495 O   0  0  0  0  0  0  0  0  0  0  0  0
   -7.6659   13.6629   -8.6054 O   0  0  0  0  0  0  0  0  0  0  0  0
   -5.1818   10.6859  -11.1671 C   0  0  0  0  0  0  0  0  0  0  0  0
   -5.7583   11.8493  -11.3275 N   0  0  0  0  0  0  0  0  0  0  0  0
   -6.2574   12.2704  -10.1660 C   0  0  0  0  0  0  0  0  0  0  0  0
   -6.0041   11.3767   -9.2464 N   0  0  0  0  0  0  0  0  0  0  0  0
   -5.3082   10.3322   -9.8764 N   0  0  0  0  0  0  0  0  0  0  0  0
   -4.0178    8.8194  -11.9531 H   0  0  0  0  0  0  0  0  0  0  0  0
   -3.4948   10.3123  -12.7457 O   0  0  0  0  0  0  0  0  0  0  0  0
   -4.5129    9.8942  -12.2239 N   0  0  0  0  0  0  0  0  0  0  0  0
   -4.9778    8.8224  -12.5683 O   0  0  0  0  0  0  0  0  0  0  0  0
   -5.8237   15.0547   -9.9424 C   0  0  0  0  0  0  0  0  0  0  0  0
   -6.4368   16.3908  -10.2742 C   0  0  0  0  0  0  0  0  0  0  0  0
   -7.1821   17.0642   -9.3246 C   0  0  0  0  0  0  0  0  0  0  0  0
   -7.7445   18.2897   -9.6289 C   0  0  0  0  0  0  0  0  0  0  0  0
   -7.5612   18.8422  -10.8827 C   0  0  0  0  0  0  0  0  0  0  0  0
   -6.8146   18.1694  -11.8319 C   0  0  0  0  0  0  0  0  0  0  0  0
   -6.2490   16.9456  -11.5264 C   0  0  0  0  0  0  0  0  0  0  0  0
   -8.1637   20.1542  -11.2088 N   0  0  0  0  0  0  0  0  0  0  0  0
   -8.2474   20.5144  -12.3693 O   0  0  0  0  0  0  0  0  0  0  0  0
   -8.5759   20.8737  -10.3166 O   0  0  0  0  0  0  0  0  0  0  0  0
 10 11  1  0  0  0
 11 12  2  0  0  0
 11  4  1  0  0  0
  4  8  1  0  0  0
  4  5  2  0  0  0
  5  6  1  0  0  0
  6  1  1  0  0  0
  6  7  2  0  0  0
  1  2  2  0  0  0
  1  3  2  0  0  0
  1 13  1  0  0  0
 13 14  1  0  0  0
 14 19  1  0  0  0
 14 15  2  0  0  0
 15 16  1  0  0  0
 16 17  2  0  0  0
 17 20  1  0  0  0
 17 18  1  0  0  0
 20 21  1  0  0  0
 20 22  2  0  0  0
 18 19  2  0  0  0
  7  8  1  0  0  0
  8  9  1  0  0  0
M  CHG 1  10  -1
M  CHG 1  11   1
M  CHG 1  20   1
M  CHG 1  21  -1
M  END
> <minimizedAffinity>
-8.27814

$$$$
ZINC000015080767


 32 35  0  0  0  0  0  0  0  0999 V2000
   -9.6408   24.5637   -3.6940 C   0  0  0  0  0  0  0  0  0  0  0  0
  -10.5134   23.6002   -3.2185 C   0  0  0  0  0  0  0  0  0  0  0  0
  -10.7411   23.5550   -1.7170 C   0  0  0  0  0  0  0  0  0  0  0  0
  -10.0069   24.5445   -0.9239 N   0  0  0  0  0  0  0  0  0  0  0  0
   -9.9217   24.8491    0.4359 N   0  0  0  0  0  0  0  0  0  0  0  0
   -9.1029   25.8383    0.5568 N   0  0  0  0  0  0  0  0  0  0  0  0
   -8.6482   26.2060   -0.5875 N   0  0  0  0  0  0  0  0  0  0  0  0
   -9.1763   25.4336   -1.5645 C   0  0  0  0  0  0  0  0  0  0  0  0
   -9.0218   25.4130   -2.8705 N   0  0  0  0  0  0  0  0  0  0  0  0
   -8.7847   25.8908   -5.7167 H   0  0  0  0  0  0  0  0  0  0  0  0
  -10.3550   22.1842   -1.2244 C   0  0  0  0  0  0  0  0  0  0  0  0
   -9.0220   21.8406   -1.1109 C   0  0  0  0  0  0  0  0  0  0  0  0
   -8.6671   20.5825   -0.6595 C   0  0  0  0  0  0  0  0  0  0  0  0
   -9.6449   19.6661   -0.3202 C   0  0  0  0  0  0  0  0  0  0  0  0
  -10.9796   20.0051   -0.4313 C   0  0  0  0  0  0  0  0  0  0  0  0
  -11.3382   21.2681   -0.8789 C   0  0  0  0  0  0  0  0  0  0  0  0
  -12.6504   21.6040   -0.9892 O   0  0  0  0  0  0  0  0  0  0  0  0
  -13.4343   21.5591    0.2048 C   0  0  0  0  0  0  0  0  0  0  0  0
   -9.3823   24.6509   -5.1533 C   0  0  0  0  0  0  0  0  0  0  0  0
   -8.3483   24.2127   -5.6138 O   0  0  0  0  0  0  0  0  0  0  0  0
  -10.1899   26.6483   -6.1802 C   0  0  0  0  0  0  0  0  0  0  0  0
  -10.2949   25.2160   -5.9662 O   0  0  0  0  0  0  0  0  0  0  0  0
  -11.1631   22.6984   -4.0907 C   0  0  0  0  0  0  0  0  0  0  0  0
  -12.3605   22.8015   -4.2922 O   0  0  0  0  0  0  0  0  0  0  0  0
  -10.3908   21.6306   -4.7584 C   0  0  0  0  0  0  0  0  0  0  0  0
  -10.2383   21.6401   -6.1475 C   0  0  0  0  0  0  0  0  0  0  0  0
   -9.5177   20.6430   -6.7660 C   0  0  0  0  0  0  0  0  0  0  0  0
   -8.9422   19.6278   -6.0106 C   0  0  0  0  0  0  0  0  0  0  0  0
   -8.2324   18.6470   -6.6239 O   0  0  0  0  0  0  0  0  0  0  0  0
   -9.0917   19.6147   -4.6286 C   0  0  0  0  0  0  0  0  0  0  0  0
   -9.8058   20.6114   -4.0019 C   0  0  0  0  0  0  0  0  0  0  0  0
  -15.0985   21.8715   -5.6141 H   0  0  0  0  0  0  0  0  0  0  0  0
 21 22  1  0  0  0
 22 19  1  0  0  0
 19 20  2  0  0  0
 19  1  1  0  0  0
  1  9  1  0  0  0
  1  2  2  0  0  0
  2 23  1  0  0  0
  2  3  1  0  0  0
 23 24  2  0  0  0
 23 25  1  0  0  0
 25 31  1  0  0  0
 25 26  2  0  0  0
 26 27  1  0  0  0
 27 28  2  0  0  0
 28 29  1  0  0  0
 28 30  1  0  0  0
 30 31  2  0  0  0
  3 11  1  0  0  0
  3  4  1  0  0  0
 11 16  1  0  0  0
 11 12  2  0  0  0
 12 13  1  0  0  0
 13 14  2  0  0  0
 14 15  1  0  0  0
 15 16  2  0  0  0
 16 17  1  0  0  0
 17 18  1  0  0  0
  4  8  1  0  0  0
  4  5  1  0  0  0
  5  6  1  0  0  0
  6  7  2  0  0  0
  7  8  1  0  0  0
  8  9  2  0  0  0
 29 32  1  0  0  0
  5 10  1  0  0  0
M  END
> <minimizedAffinity>
-6.03381

$$$$
ZINC000072420262


 25 28  0  0  0  0  0  0  0  0999 V2000
   -9.2976   16.7633   -6.9649 N   0  0  0  0  0  0  0  0  0  0  0  0
   -9.6950   16.9332   -5.6652 C   0  0  0  0  0  0  0  0  0  0  0  0
   -9.3988   15.7930   -5.0096 C   0  0  0  0  0  0  0  0  0  0  0  0
   -8.8352   14.9423   -5.8757 N   0  0  0  0  0  0  0  0  0  0  0  0
   -8.7708   15.5085   -7.0601 C   0  0  0  0  0  0  0  0  0  0  0  0
   -8.2141   14.8936   -8.2849 C   0  0  0  0  0  0  0  0  0  0  0  0
   -8.9113   14.3814   -9.2827 N   0  0  0  0  0  0  0  0  0  0  0  0
   -8.0124   13.9100  -10.2373 N   0  0  0  0  0  0  0  0  0  0  0  0
   -8.3018   13.2659  -11.5232 C   0  0  0  0  0  0  0  0  0  0  0  0
   -7.0252   13.3069  -12.3730 C   0  0  0  0  0  0  0  0  0  0  0  0
   -5.8920   12.7912  -11.5934 N   0  0  0  0  0  0  0  0  0  0  0  0
   -5.5117   13.7657  -10.5566 C   0  0  0  0  0  0  0  0  0  0  0  0
   -6.7534   14.1463   -9.7891 C   0  0  0  0  0  0  0  0  0  0  0  0
   -6.8431   14.7564   -8.5963 C   0  0  0  0  0  0  0  0  0  0  0  0
  -14.5603   13.8334   -6.5813 H   0  0  0  0  0  0  0  0  0  0  0  0
  -14.5603   13.8334   -6.5813 H   0  0  0  0  0  0  0  0  0  0  0  0
   -9.4207   17.7412   -8.0487 C   0  0  0  0  0  0  0  0  0  0  0  0
   -8.0759   18.4393   -8.2609 C   0  0  0  0  0  0  0  0  0  0  0  0
   -7.7920   18.7926  -10.7752 N   0  0  0  0  0  0  0  0  0  0  0  0
   -7.9815   19.8408  -11.6127 C   0  0  0  0  0  0  0  0  0  0  0  0
   -8.3946   20.8458  -10.8896 N   0  0  0  0  0  0  0  0  0  0  0  0
   -8.4738   20.4885   -9.6569 N   0  0  0  0  0  0  0  0  0  0  0  0
   -8.1204   19.2376   -9.5383 C   0  0  0  0  0  0  0  0  0  0  0  0
   -5.9354   17.5371  -11.7542 C   0  0  0  0  0  0  0  0  0  0  0  0
   -7.3318   17.4491  -11.1350 C   0  0  0  0  0  0  0  0  0  0  0  0
 24 25  1  0  0  0
 25 19  1  0  0  0
 19 23  1  0  0  0
 19 20  1  0  0  0
 20 21  2  0  0  0
 21 22  1  0  0  0
 22 23  2  0  0  0
 23 18  1  0  0  0
 18 17  1  0  0  0
 17  1  1  0  0  0
  1  5  1  0  0  0
  1  2  1  0  0  0
  2  3  2  0  0  0
  3  4  1  0  0  0
  4  5  2  0  0  0
  5  6  1  0  0  0
  6 14  1  0  0  0
  6  7  2  0  0  0
  7  8  1  0  0  0
  8 13  1  0  0  0
  8  9  1  0  0  0
  9 10  1  0  0  0
 10 11  1  0  0  0
 11 12  1  0  0  0
 12 13  1  0  0  0
 13 14  2  0  0  0
 11 15  1  0  0  0
 11 16  1  0  0  0
M  CHG 1  11   1
M  END
> <minimizedAffinity>
-7.15710

$$$$
ZINC000096056902


 22 24  0  0  0  0  0  0  0  0999 V2000
   -6.3807   15.8659  -10.2423 C   0  0  0  0  0  0  0  0  0  0  0  0
   -5.9018   15.4201  -11.6294 C   0  0  0  0  0  0  0  0  0  0  0  0
   -6.6996   16.1773  -12.6957 C   0  0  0  0  0  0  0  0  0  0  0  0
   -6.5292   17.6831  -12.4803 C   0  0  0  0  0  0  0  0  0  0  0  0
   -6.9524   18.0270  -11.1588 O   0  0  0  0  0  0  0  0  0  0  0  0
   -6.2071   17.3825  -10.1253 C   0  0  0  0  0  0  0  0  0  0  0  0
   -6.7028   17.8485   -8.7568 C   0  0  0  0  0  0  0  0  0  0  0  0
   -8.1877   17.5039   -8.6060 C   0  0  0  0  0  0  0  0  0  0  0  0
   -8.3639   16.0663   -8.8546 N   0  0  0  0  0  0  0  0  0  0  0  0
   -8.9835   15.2829   -7.9497 C   0  0  0  0  0  0  0  0  0  0  0  0
   -9.2110   14.1159   -8.2095 O   0  0  0  0  0  0  0  0  0  0  0  0
   -7.8615   15.5101  -10.0708 C   0  0  0  0  0  0  0  0  0  0  0  0
   -9.3837   15.8368   -6.6522 C   0  0  0  0  0  0  0  0  0  0  0  0
   -8.7208   15.6708   -5.4700 C   0  0  0  0  0  0  0  0  0  0  0  0
   -9.4518   16.3686   -4.4960 C   0  0  0  0  0  0  0  0  0  0  0  0
  -10.5155   16.9229   -5.1183 C   0  0  0  0  0  0  0  0  0  0  0  0
  -10.4682   16.6044   -6.4183 O   0  0  0  0  0  0  0  0  0  0  0  0
   -5.5535   15.1668   -9.1615 C   0  0  0  0  0  0  0  0  0  0  0  0
   -5.1191   13.8935   -9.6433 O   0  0  0  0  0  0  0  0  0  0  0  0
   -5.9185   12.7981   -9.1927 C   0  0  0  0  0  0  0  0  0  0  0  0
   -7.2537   11.9309  -11.0437 C   0  0  0  0  0  0  0  0  0  0  0  0
   -6.1547   11.8450  -10.3359 C   0  0  0  0  0  0  0  0  0  0  0  0
 21 22  2  0  0  0
 22 20  1  0  0  0
 20 19  1  0  0  0
 19 18  1  0  0  0
  1 18  1  0  0  0
  1  6  1  0  0  0
  1 12  1  0  0  0
  1  2  1  0  0  0
  2  3  1  0  0  0
  3  4  1  0  0  0
  4  5  1  0  0  0
  5  6  1  0  0  0
  6  7  1  0  0  0
  7  8  1  0  0  0
  8  9  1  0  0  0
  9 10  1  0  0  0
  9 12  1  0  0  0
 10 11  2  0  0  0
 10 13  1  0  0  0
 13 17  1  0  0  0
 13 14  2  0  0  0
 14 15  1  0  0  0
 15 16  2  0  0  0
 16 17  1  0  0  0
M  END
> <minimizedAffinity>
-6.79586

$$$$
ZINC000012483841


 25 26  0  0  0  0  0  0  0  0999 V2000
   -6.8800   14.0986  -11.6140 C   0  0  0  0  0  0  0  0  0  0  0  0
   -7.8333   12.9915  -11.1349 C   0  0  0  0  0  0  0  0  0  0  0  0
   -7.2030   11.6310  -11.5141 C   0  0  0  0  0  0  0  0  0  0  0  0
   -6.3955   11.2674  -10.3799 O   0  0  0  0  0  0  0  0  0  0  0  0
   -6.5032   12.3408   -9.4268 C   0  0  0  0  0  0  0  0  0  0  0  0
   -7.7895   12.9872   -9.6862 O   0  0  0  0  0  0  0  0  0  0  0  0
   -5.3888   13.3573   -9.7201 C   0  0  0  0  0  0  0  0  0  0  0  0
   -5.4490   13.7224  -11.2135 C   0  0  0  0  0  0  0  0  0  0  0  0
   -5.0649   12.5907  -11.9971 O   0  0  0  0  0  0  0  0  0  0  0  0
   -9.7682   19.4006  -10.7343 H   0  0  0  0  0  0  0  0  0  0  0  0
   -7.4409   17.6946  -11.0906 N   0  0  0  0  0  0  0  0  0  0  0  0
   -7.1021   16.5245  -11.6675 C   0  0  0  0  0  0  0  0  0  0  0  0
   -6.6649   16.5102  -12.8019 O   0  0  0  0  0  0  0  0  0  0  0  0
   -7.2482   15.3704  -10.9869 N   0  0  0  0  0  0  0  0  0  0  0  0
   -7.7285   20.1060  -10.9674 H   0  0  0  0  0  0  0  0  0  0  0  0
   -7.7285   20.1060  -10.9674 H   0  0  0  0  0  0  0  0  0  0  0  0
   -7.2821   18.9491  -11.8304 C   0  0  0  0  0  0  0  0  0  0  0  0
   -8.2733   20.4104  -10.1441 C   0  0  0  0  0  0  0  0  0  0  0  0
   -8.3178   19.9405  -11.3661 C   0  0  0  0  0  0  0  0  0  0  0  0
   -5.6115   14.5742   -8.9279 N   0  0  0  0  0  0  0  0  0  0  0  0
   -7.5013   20.3500  -11.5555 H   0  0  0  0  0  0  0  0  0  0  0  0
   -5.6578   14.2666   -7.4923 C   0  0  0  0  0  0  0  0  0  0  0  0
   -6.6206   15.2300   -6.7952 C   0  0  0  0  0  0  0  0  0  0  0  0
   -7.9570   14.7382   -6.9159 O   0  0  0  0  0  0  0  0  0  0  0  0
   -8.8485   15.6353   -7.5812 C   0  0  0  0  0  0  0  0  0  0  0  0
 18 19  2  0  0  0
 19 17  1  0  0  0
 17 11  1  0  0  0
 11 12  1  0  0  0
 12 13  2  0  0  0
 12 14  1  0  0  0
 14  1  1  0  0  0
  1  8  1  0  0  0
  1  2  1  0  0  0
  2  6  1  0  0  0
  2  3  1  0  0  0
  3  4  1  0  0  0
  4  5  1  0  0  0
  5  6  1  0  0  0
  5  7  1  0  0  0
  7 20  1  0  0  0
  7  8  1  0  0  0
 20 22  1  0  0  0
 22 23  1  0  0  0
 23 24  1  0  0  0
 24 25  1  0  0  0
  8  9  1  0  0  0
 11 15  1  0  0  0
 14 16  1  0  0  0
 20 21  1  0  0  0
  9 10  1  0  0  0
M  END
> <minimizedAffinity>
-6.33061

$$$$
ZINC000085878197


 34 36  0  0  0  0  0  0  0  0999 V2000
   -7.7513   18.8801  -10.0556 C   0  0  0  0  0  0  0  0  0  0  0  0
   -8.5885   19.5810   -9.2112 C   0  0  0  0  0  0  0  0  0  0  0  0
   -8.6548   19.2393   -7.8546 C   0  0  0  0  0  0  0  0  0  0  0  0
   -7.8714   18.1887   -7.3627 C   0  0  0  0  0  0  0  0  0  0  0  0
   -7.0387   17.4946   -8.2129 C   0  0  0  0  0  0  0  0  0  0  0  0
   -6.9777   17.8309   -9.5587 C   0  0  0  0  0  0  0  0  0  0  0  0
   -8.2527   20.4622  -11.7591 C   0  0  0  0  0  0  0  0  0  0  0  0
   -7.6846   19.2088  -11.3735 O   0  0  0  0  0  0  0  0  0  0  0  0
   -9.5441   19.9811   -6.9506 C   0  0  0  0  0  0  0  0  0  0  0  0
   -9.3809   21.3127   -6.7841 C   0  0  0  0  0  0  0  0  0  0  0  0
  -10.2656   22.0507   -5.8845 C   0  0  0  0  0  0  0  0  0  0  0  0
  -11.4741   21.9368   -5.9899 O   0  0  0  0  0  0  0  0  0  0  0  0
   -9.6965   22.9318   -4.8513 C   0  0  0  0  0  0  0  0  0  0  0  0
   -9.3596   22.5823   -3.5542 C   0  0  0  0  0  0  0  0  0  0  0  0
   -8.8642   23.7516   -2.9731 C   0  0  0  0  0  0  0  0  0  0  0  0
   -8.9147   24.7000   -3.8736 N   0  0  0  0  0  0  0  0  0  0  0  0
   -9.3893   24.2562   -4.9815 N   0  0  0  0  0  0  0  0  0  0  0  0
   -9.5813   25.0518   -6.1966 C   0  0  0  0  0  0  0  0  0  0  0  0
   -6.1552   17.1426  -10.3918 O   0  0  0  0  0  0  0  0  0  0  0  0
   -6.5527   15.8167  -10.7466 C   0  0  0  0  0  0  0  0  0  0  0  0
   -6.1544   14.9083   -9.7179 O   0  0  0  0  0  0  0  0  0  0  0  0
   -6.5281   13.5507   -9.9614 C   0  0  0  0  0  0  0  0  0  0  0  0
   -5.8577   13.0613  -11.2479 C   0  0  0  0  0  0  0  0  0  0  0  0
   -4.4379   13.0952  -11.0892 O   0  0  0  0  0  0  0  0  0  0  0  0
   -6.2666   13.9753  -12.4071 C   0  0  0  0  0  0  0  0  0  0  0  0
   -5.5894   13.5689  -13.5980 O   0  0  0  0  0  0  0  0  0  0  0  0
   -5.8837   15.4184  -12.0647 C   0  0  0  0  0  0  0  0  0  0  0  0
   -6.3244   16.2897  -13.1081 O   0  0  0  0  0  0  0  0  0  0  0  0
   -5.4640   19.6868   -9.5894 H   0  0  0  0  0  0  0  0  0  0  0  0
   -5.4640   19.6868   -9.5894 H   0  0  0  0  0  0  0  0  0  0  0  0
   -5.4640   19.6868   -9.5894 H   0  0  0  0  0  0  0  0  0  0  0  0
   -6.0774   12.6790   -8.7875 C   0  0  0  0  0  0  0  0  0  0  0  0
   -6.8078   11.4508   -8.7983 O   0  0  0  0  0  0  0  0  0  0  0  0
  -12.4741   15.4369  -10.0539 H   0  0  0  0  0  0  0  0  0  0  0  0
  7  8  1  0  0  0
  8  1  1  0  0  0
  1  6  2  0  0  0
  1  2  1  0  0  0
  2  3  2  0  0  0
  3  9  1  0  0  0
  3  4  1  0  0  0
  9 10  2  0  0  0
 10 11  1  0  0  0
 11 12  2  0  0  0
 11 13  1  0  0  0
 13 17  1  0  0  0
 13 14  2  0  0  0
 14 15  1  0  0  0
 15 16  2  0  0  0
 16 17  1  0  0  0
 17 18  1  0  0  0
  4  5  2  0  0  0
  5  6  1  0  0  0
  6 19  1  0  0  0
 19 20  1  0  0  0
 20 27  1  0  0  0
 20 21  1  0  0  0
 21 22  1  0  0  0
 22 32  1  0  0  0
 22 23  1  0  0  0
 32 33  1  0  0  0
 23 24  1  0  0  0
 23 25  1  0  0  0
 25 26  1  0  0  0
 25 27  1  0  0  0
 27 28  1  0  0  0
 33 34  1  0  0  0
 24 29  1  0  0  0
 26 30  1  0  0  0
 28 31  1  0  0  0
M  END
> <minimizedAffinity>
-8.62928

$$$$
ZINC000254396466


 29 30  0  0  0  0  0  0  0  0999 V2000
   -7.7604   15.9165   -8.4366 C   0  0  0  0  0  0  0  0  0  0  0  0
   -8.0260   17.2066   -8.4632 N   0  0  0  0  0  0  0  0  0  0  0  0
   -8.2047   15.0511   -9.5404 C   0  0  0  0  0  0  0  0  0  0  0  0
   -9.0967   14.2440   -9.3593 O   0  0  0  0  0  0  0  0  0  0  0  0
   -7.6234   15.1525  -10.7521 N   0  0  0  0  0  0  0  0  0  0  0  0
   -6.4116   15.9645  -10.9454 C   0  0  0  0  0  0  0  0  0  0  0  0
   -5.3683   15.1101  -11.6746 C   0  0  0  0  0  0  0  0  0  0  0  0
   -5.9554   14.5552  -12.8540 O   0  0  0  0  0  0  0  0  0  0  0  0
   -7.0521   13.6733  -12.6025 C   0  0  0  0  0  0  0  0  0  0  0  0
   -8.1784   14.4495  -11.9197 C   0  0  0  0  0  0  0  0  0  0  0  0
   -7.6511   15.1069   -6.1374 N   0  0  0  0  0  0  0  0  0  0  0  0
   -7.0205   15.3421   -7.3050 C   0  0  0  0  0  0  0  0  0  0  0  0
   -5.3573   14.9712   -7.4695 S   0  0  0  0  0  0  0  0  0  0  0  0
   -6.8209   15.3131   -7.4353 H   0  0  0  0  0  0  0  0  0  0  0  0
   -6.8209   15.3131   -7.4353 H   0  0  0  0  0  0  0  0  0  0  0  0
   -7.5479   17.9825   -7.5503 N   0  0  0  0  0  0  0  0  0  0  0  0
   -5.9852   15.8781   -8.3291 H   0  0  0  0  0  0  0  0  0  0  0  0
   -8.3748   18.9162   -6.9248 C   0  0  0  0  0  0  0  0  0  0  0  0
   -8.6547   18.8006   -5.5683 C   0  0  0  0  0  0  0  0  0  0  0  0
   -9.4735   19.7264   -4.9527 C   0  0  0  0  0  0  0  0  0  0  0  0
  -10.0154   20.7676   -5.6843 C   0  0  0  0  0  0  0  0  0  0  0  0
   -9.7391   20.8858   -7.0343 C   0  0  0  0  0  0  0  0  0  0  0  0
   -8.9162   19.9673   -7.6554 C   0  0  0  0  0  0  0  0  0  0  0  0
  -11.0597   21.9466   -4.8945 S   0  0  0  0  0  0  0  0  0  0  0  0
  -10.7728   23.4124   -5.6096 N   0  0  0  0  0  0  0  0  0  0  0  0
  -12.3935   21.5902   -5.2309 O   0  0  0  0  0  0  0  0  0  0  0  0
  -10.5991   22.0567   -3.5547 O   0  0  0  0  0  0  0  0  0  0  0  0
   -5.8551   16.5330   -9.1348 H   0  0  0  0  0  0  0  0  0  0  0  0
   -5.8551   16.5330   -9.1348 H   0  0  0  0  0  0  0  0  0  0  0  0
 11 12  1  0  0  0
 12 13  2  0  0  0
 12  1  1  0  0  0
  1  2  2  0  0  0
  1  3  1  0  0  0
  2 16  1  0  0  0
 16 18  1  0  0  0
 18 23  1  0  0  0
 18 19  2  0  0  0
 19 20  1  0  0  0
 20 21  2  0  0  0
 21 24  1  0  0  0
 21 22  1  0  0  0
 24 25  1  0  0  0
 24 26  2  0  0  0
 24 27  2  0  0  0
 22 23  2  0  0  0
  3  4  2  0  0  0
  3  5  1  0  0  0
  5 10  1  0  0  0
  5  6  1  0  0  0
  6  7  1  0  0  0
  7  8  1  0  0  0
  8  9  1  0  0  0
  9 10  1  0  0  0
 11 14  1  0  0  0
 11 15  1  0  0  0
 16 17  1  0  0  0
 25 28  1  0  0  0
 25 29  1  0  0  0
M  END
> <minimizedAffinity>
-7.24639

$$$$
ZINC000048333247


 27 29  0  0  0  0  0  0  0  0999 V2000
   -9.0200   15.6777   -6.9857 C   0  0  0  0  0  0  0  0  0  0  0  0
   -6.7396   14.0294  -11.1332 C   0  0  0  0  0  0  0  0  0  0  0  0
   -5.7196   14.0298   -9.9923 C   0  0  0  0  0  0  0  0  0  0  0  0
   -6.3832   13.4950   -8.7192 C   0  0  0  0  0  0  0  0  0  0  0  0
   -7.5919   14.2850   -8.4483 N   0  0  0  0  0  0  0  0  0  0  0  0
   -7.7749   14.8705   -7.2483 C   0  0  0  0  0  0  0  0  0  0  0  0
   -6.9375   14.7477   -6.3796 O   0  0  0  0  0  0  0  0  0  0  0  0
   -8.5971   14.4252   -9.5106 C   0  0  0  0  0  0  0  0  0  0  0  0
   -7.9088   14.9496  -10.7748 C   0  0  0  0  0  0  0  0  0  0  0  0
   -6.0810   14.5230  -12.3956 C   0  0  0  0  0  0  0  0  0  0  0  0
   -5.4918   13.7489  -13.1121 O   0  0  0  0  0  0  0  0  0  0  0  0
   -6.1491   15.8227  -12.7240 O   0  0  0  0  0  0  0  0  0  0  0  0
   -5.1201   17.9938  -13.1220 C   0  0  0  0  0  0  0  0  0  0  0  0
   -4.9898   16.6416  -12.4178 C   0  0  0  0  0  0  0  0  0  0  0  0
   -8.6521   16.9583   -6.3670 N   0  0  0  0  0  0  0  0  0  0  0  0
   -9.2149   17.0687   -4.9965 C   0  0  0  0  0  0  0  0  0  0  0  0
   -9.2274   18.5840   -4.7020 C   0  0  0  0  0  0  0  0  0  0  0  0
   -9.2550   19.2614   -6.0876 C   0  0  0  0  0  0  0  0  0  0  0  0
   -9.2568   18.0984   -7.1028 C   0  0  0  0  0  0  0  0  0  0  0  0
   -8.4232   18.4511   -8.3076 C   0  0  0  0  0  0  0  0  0  0  0  0
   -7.1100   18.0262   -8.3872 C   0  0  0  0  0  0  0  0  0  0  0  0
   -6.3424   18.3482   -9.4915 C   0  0  0  0  0  0  0  0  0  0  0  0
   -6.8863   19.0954  -10.5180 C   0  0  0  0  0  0  0  0  0  0  0  0
   -8.2039   19.5230  -10.4405 C   0  0  0  0  0  0  0  0  0  0  0  0
   -8.9736   19.1939   -9.3344 C   0  0  0  0  0  0  0  0  0  0  0  0
   -8.7415   20.2579  -11.4494 O   0  0  0  0  0  0  0  0  0  0  0  0
   -8.0304   20.2763  -12.6888 C   0  0  0  0  0  0  0  0  0  0  0  0
 13 14  1  0  0  0
 14 12  1  0  0  0
 12 10  1  0  0  0
 10 11  2  0  0  0
 10  2  1  0  0  0
  2  9  1  0  0  0
  2  3  1  0  0  0
  3  4  1  0  0  0
  4  5  1  0  0  0
  5  6  1  0  0  0
  5  8  1  0  0  0
  6  7  2  0  0  0
  6  1  1  0  0  0
  1 15  1  0  0  0
 15 19  1  0  0  0
 15 16  1  0  0  0
 16 17  1  0  0  0
 17 18  1  0  0  0
 18 19  1  0  0  0
 19 20  1  0  0  0
 20 25  1  0  0  0
 20 21  2  0  0  0
 21 22  1  0  0  0
 22 23  2  0  0  0
 23 24  1  0  0  0
 24 26  1  0  0  0
 24 25  2  0  0  0
 26 27  1  0  0  0
  8  9  1  0  0  0
M  END
> <minimizedAffinity>
-7.69882

$$$$
ZINC000216928417


 20 20  0  0  0  0  0  0  0  0999 V2000
   -7.1257   16.3924   -8.8028 C   0  0  0  0  0  0  0  0  0  0  0  0
   -6.2432   16.7503   -7.7904 C   0  0  0  0  0  0  0  0  0  0  0  0
   -5.3523   15.8226   -7.2828 C   0  0  0  0  0  0  0  0  0  0  0  0
   -5.3332   14.5349   -7.7771 C   0  0  0  0  0  0  0  0  0  0  0  0
   -6.2165   14.1643   -8.7948 C   0  0  0  0  0  0  0  0  0  0  0  0
   -7.1193   15.0999   -9.3033 C   0  0  0  0  0  0  0  0  0  0  0  0
   -8.0753   14.7091  -10.4007 C   0  0  0  0  0  0  0  0  0  0  0  0
   -6.1990   12.7876   -9.3255 C   0  0  0  0  0  0  0  0  0  0  0  0
   -6.8713   11.9174   -8.7905 O   0  0  0  0  0  0  0  0  0  0  0  0
   -5.5122   12.5168  -10.3005 O   0  0  0  0  0  0  0  0  0  0  0  0
  -11.4436   20.0663   -5.8441 H   0  0  0  0  0  0  0  0  0  0  0  0
   -8.0246   17.3356   -9.3130 N   0  0  0  0  0  0  0  0  0  0  0  0
  -10.0568   21.6389   -9.5503 H   0  0  0  0  0  0  0  0  0  0  0  0
   -7.5651   18.4090   -9.9862 C   0  0  0  0  0  0  0  0  0  0  0  0
   -8.3565   19.9193   -9.8321 S   0  0  0  0  0  0  0  0  0  0  0  0
   -6.4826   18.2934  -10.7807 N   0  0  0  0  0  0  0  0  0  0  0  0
   -4.5371   16.0549  -11.4420 H   0  0  0  0  0  0  0  0  0  0  0  0
   -6.6493   18.0271  -12.2116 C   0  0  0  0  0  0  0  0  0  0  0  0
   -4.9850   16.2615  -11.9397 C   0  0  0  0  0  0  0  0  0  0  0  0
   -5.4945   17.1943  -12.7055 C   0  0  0  0  0  0  0  0  0  0  0  0
 19 20  2  0  0  0
 20 18  1  0  0  0
 18 16  1  0  0  0
 16 14  1  0  0  0
 14 15  2  0  0  0
 14 12  1  0  0  0
 12  1  1  0  0  0
  1  6  2  0  0  0
  1  2  1  0  0  0
  2  3  2  0  0  0
  3  4  1  0  0  0
  4  5  2  0  0  0
  5  8  1  0  0  0
  5  6  1  0  0  0
  8  9  2  0  0  0
  8 10  1  0  0  0
  6  7  1  0  0  0
 16 17  1  0  0  0
 12 13  1  0  0  0
 10 11  1  0  0  0
M  END
> <minimizedAffinity>
-5.93491

$$$$
ZINC000022910045


 29 32  0  0  0  0  0  0  0  0999 V2000
   -7.4133   17.6101   -7.8913 C   0  0  0  0  0  0  0  0  0  0  0  0
   -7.8237   18.8089   -7.5639 N   0  0  0  0  0  0  0  0  0  0  0  0
   -8.7931   18.7214   -6.6495 C   0  0  0  0  0  0  0  0  0  0  0  0
   -8.9966   17.3712   -6.3932 C   0  0  0  0  0  0  0  0  0  0  0  0
   -9.9781   16.9899   -5.4531 C   0  0  0  0  0  0  0  0  0  0  0  0
  -10.1750   15.8127   -5.2110 O   0  0  0  0  0  0  0  0  0  0  0  0
  -10.6956   17.9451   -4.8256 N   0  0  0  0  0  0  0  0  0  0  0  0
  -11.7159   17.5563   -3.8488 C   0  0  0  0  0  0  0  0  0  0  0  0
  -10.4878   19.2480   -5.0830 C   0  0  0  0  0  0  0  0  0  0  0  0
  -11.1528   20.0810   -4.4977 O   0  0  0  0  0  0  0  0  0  0  0  0
   -9.5619   19.6539   -5.9721 N   0  0  0  0  0  0  0  0  0  0  0  0
   -9.3671   21.0838   -6.2238 C   0  0  0  0  0  0  0  0  0  0  0  0
   -8.1099   16.6868   -7.2001 N   0  0  0  0  0  0  0  0  0  0  0  0
   -6.3301   17.3079   -8.8945 C   0  0  0  0  0  0  0  0  0  0  0  0
   -7.1829   18.7088  -14.2995 C   0  0  0  0  0  0  0  0  0  0  0  0
   -6.6753   18.4657  -12.9425 N   0  0  0  0  0  0  0  0  0  0  0  0
   -6.6579   17.0285  -12.6364 C   0  0  0  0  0  0  0  0  0  0  0  0
   -6.0501   16.8126  -11.2484 C   0  0  0  0  0  0  0  0  0  0  0  0
   -6.8377   17.5509  -10.2514 N   0  0  0  0  0  0  0  0  0  0  0  0
   -6.8552   18.9882  -10.5575 C   0  0  0  0  0  0  0  0  0  0  0  0
   -7.4630   19.2040  -11.9455 C   0  0  0  0  0  0  0  0  0  0  0  0
   -7.9506   15.2329   -7.2829 C   0  0  0  0  0  0  0  0  0  0  0  0
   -8.8230   14.6880   -8.4156 C   0  0  0  0  0  0  0  0  0  0  0  0
   -8.0718   13.6743   -9.1680 N   0  0  0  0  0  0  0  0  0  0  0  0
   -6.6438   13.7106   -8.8198 C   0  0  0  0  0  0  0  0  0  0  0  0
   -5.9106   12.6020   -9.5796 C   0  0  0  0  0  0  0  0  0  0  0  0
   -6.1300   12.7674  -10.9831 O   0  0  0  0  0  0  0  0  0  0  0  0
   -7.5098   12.7365  -11.3576 C   0  0  0  0  0  0  0  0  0  0  0  0
   -8.2594   13.8463  -10.6159 C   0  0  0  0  0  0  0  0  0  0  0  0
 15 16  1  0  0  0
 16 21  1  0  0  0
 16 17  1  0  0  0
 17 18  1  0  0  0
 18 19  1  0  0  0
 19 14  1  0  0  0
 19 20  1  0  0  0
 14  1  1  0  0  0
  1 13  1  0  0  0
  1  2  2  0  0  0
  2  3  1  0  0  0
  3 11  1  0  0  0
  3  4  2  0  0  0
  4  5  1  0  0  0
  4 13  1  0  0  0
  5  6  2  0  0  0
  5  7  1  0  0  0
  7  8  1  0  0  0
  7  9  1  0  0  0
  9 10  2  0  0  0
  9 11  1  0  0  0
 11 12  1  0  0  0
 13 22  1  0  0  0
 22 23  1  0  0  0
 23 24  1  0  0  0
 24 29  1  0  0  0
 24 25  1  0  0  0
 25 26  1  0  0  0
 26 27  1  0  0  0
 27 28  1  0  0  0
 28 29  1  0  0  0
 20 21  1  0  0  0
M  END
> <minimizedAffinity>
-7.45917

$$$$
ZINC000104158928


 27 29  0  0  0  0  0  0  0  0999 V2000
  -10.1990   18.6179   -4.8890 N   0  0  0  0  0  0  0  0  0  0  0  0
   -9.0985   19.2558   -5.3594 C   0  0  0  0  0  0  0  0  0  0  0  0
   -8.3774   18.7705   -6.3330 N   0  0  0  0  0  0  0  0  0  0  0  0
   -8.6935   17.6082   -6.9183 C   0  0  0  0  0  0  0  0  0  0  0  0
   -9.8166   16.8976   -6.4814 C   0  0  0  0  0  0  0  0  0  0  0  0
   -9.9011   15.7763   -7.2347 N   0  0  0  0  0  0  0  0  0  0  0  0
   -8.9190   15.7558   -8.0891 C   0  0  0  0  0  0  0  0  0  0  0  0
   -8.1463   16.8675   -7.9313 N   0  0  0  0  0  0  0  0  0  0  0  0
  -10.5845   17.4365   -5.4207 C   0  0  0  0  0  0  0  0  0  0  0  0
  -11.5724   16.8548   -5.0042 O   0  0  0  0  0  0  0  0  0  0  0  0
   -6.9492   17.2075   -8.7043 C   0  0  0  0  0  0  0  0  0  0  0  0
   -7.0514   18.5509   -9.2246 O   0  0  0  0  0  0  0  0  0  0  0  0
   -7.9243   18.4496  -10.3708 C   0  0  0  0  0  0  0  0  0  0  0  0
   -7.4991   17.1430  -11.0765 C   0  0  0  0  0  0  0  0  0  0  0  0
   -6.5576   17.4185  -12.1156 O   0  0  0  0  0  0  0  0  0  0  0  0
   -6.8414   16.3049   -9.9534 C   0  0  0  0  0  0  0  0  0  0  0  0
   -5.4730   16.0357  -10.2655 O   0  0  0  0  0  0  0  0  0  0  0  0
   -6.9797   12.8473   -4.0856 H   0  0  0  0  0  0  0  0  0  0  0  0
   -6.9797   12.8473   -4.0856 H   0  0  0  0  0  0  0  0  0  0  0  0
   -7.7246   19.6487  -11.2998 C   0  0  0  0  0  0  0  0  0  0  0  0
   -8.4580   20.7677  -10.7976 O   0  0  0  0  0  0  0  0  0  0  0  0
   -7.4234   13.1720   -3.7618 H   0  0  0  0  0  0  0  0  0  0  0  0
  -10.6269   18.9179   -2.6119 C   0  0  0  0  0  0  0  0  0  0  0  0
  -10.9374   19.1841   -3.8417 N   0  0  0  0  0  0  0  0  0  0  0  0
   -9.2164   16.9447   -2.1904 C   0  0  0  0  0  0  0  0  0  0  0  0
   -9.3888   18.3943   -2.3122 N   0  0  0  0  0  0  0  0  0  0  0  0
   -8.2441   19.2872   -2.1152 C   0  0  0  0  0  0  0  0  0  0  0  0
 25 26  1  0  0  0
 26 27  1  0  0  0
 26 23  1  0  0  0
 23 24  2  0  0  0
 24  1  1  0  0  0
  1  9  1  0  0  0
  1  2  1  0  0  0
  2  3  2  0  0  0
  3  4  1  0  0  0
  4  8  1  0  0  0
  4  5  2  0  0  0
  5  6  1  0  0  0
  5  9  1  0  0  0
  6  7  2  0  0  0
  7  8  1  0  0  0
  8 11  1  0  0  0
 11 16  1  0  0  0
 11 12  1  0  0  0
 12 13  1  0  0  0
 13 20  1  0  0  0
 13 14  1  0  0  0
 20 21  1  0  0  0
 14 15  1  0  0  0
 14 16  1  0  0  0
 16 17  1  0  0  0
  9 10  2  0  0  0
 21 22  1  0  0  0
 15 18  1  0  0  0
 17 19  1  0  0  0
M  END
> <minimizedAffinity>
-6.89104

$$$$
ZINC000096076835


 23 25  0  0  0  0  0  0  0  0999 V2000
   -8.4053   17.2800   -8.6623 N   0  0  0  0  0  0  0  0  0  0  0  0
   -8.4522   18.5184   -9.4629 C   0  0  0  0  0  0  0  0  0  0  0  0
   -7.0940   19.1701   -9.4097 C   0  0  0  0  0  0  0  0  0  0  0  0
   -6.2677   18.7742  -10.5193 O   0  0  0  0  0  0  0  0  0  0  0  0
   -6.3358   17.3840  -10.8976 C   0  0  0  0  0  0  0  0  0  0  0  0
   -6.3674   16.4508   -9.7139 C   0  0  0  0  0  0  0  0  0  0  0  0
   -5.7037   15.1151  -10.0700 C   0  0  0  0  0  0  0  0  0  0  0  0
   -5.6347   14.2912   -8.8530 N   0  0  0  0  0  0  0  0  0  0  0  0
   -6.0789   13.0187   -8.8501 C   0  0  0  0  0  0  0  0  0  0  0  0
   -5.9555   12.3343   -7.8537 O   0  0  0  0  0  0  0  0  0  0  0  0
   -5.0657   14.8979   -7.6390 C   0  0  0  0  0  0  0  0  0  0  0  0
   -5.7614   16.2427   -7.4001 C   0  0  0  0  0  0  0  0  0  0  0  0
   -5.6939   17.0273   -8.5933 O   0  0  0  0  0  0  0  0  0  0  0  0
   -7.8371   16.1787   -9.3241 C   0  0  0  0  0  0  0  0  0  0  0  0
   -6.7174   12.4544  -10.0619 C   0  0  0  0  0  0  0  0  0  0  0  0
   -7.8304   13.0705  -10.6480 C   0  0  0  0  0  0  0  0  0  0  0  0
   -8.3726   12.4841  -11.7801 C   0  0  0  0  0  0  0  0  0  0  0  0
   -7.8398   11.3818  -12.2705 N   0  0  0  0  0  0  0  0  0  0  0  0
   -6.8207   10.8126  -11.7386 N   0  0  0  0  0  0  0  0  0  0  0  0
   -6.2264   11.2921  -10.6631 C   0  0  0  0  0  0  0  0  0  0  0  0
   -9.7333   16.9466   -8.1301 C   0  0  0  0  0  0  0  0  0  0  0  0
   -8.9295   17.6348   -5.9297 C   0  0  0  0  0  0  0  0  0  0  0  0
   -9.6514   16.7976   -6.6327 C   0  0  0  0  0  0  0  0  0  0  0  0
 22 23  2  0  0  0
 23 21  1  0  0  0
 21  1  1  0  0  0
  1 14  1  0  0  0
  1  2  1  0  0  0
  2  3  1  0  0  0
  3  4  1  0  0  0
  4  5  1  0  0  0
  6  5  1  0  0  0
  6 13  1  0  0  0
  6  7  1  0  0  0
  6 14  1  0  0  0
  7  8  1  0  0  0
  8  9  1  0  0  0
  8 11  1  0  0  0
  9 10  2  0  0  0
  9 15  1  0  0  0
 15 20  1  0  0  0
 15 16  2  0  0  0
 16 17  1  0  0  0
 17 18  2  0  0  0
 18 19  1  0  0  0
 19 20  2  0  0  0
 11 12  1  0  0  0
 12 13  1  0  0  0
M  END
> <minimizedAffinity>
-6.58675

$$$$
ZINC000004303953


 31 34  0  0  0  0  0  0  0  0999 V2000
   -7.8010   16.6440   -9.2941 N   0  0  0  0  0  0  0  0  0  0  0  0
   -7.5443   17.7711  -10.0539 C   0  0  0  0  0  0  0  0  0  0  0  0
   -6.9760   17.7858  -11.4496 C   0  0  0  0  0  0  0  0  0  0  0  0
   -7.8860   18.8395   -9.3397 C   0  0  0  0  0  0  0  0  0  0  0  0
   -7.7707   20.2735   -9.7882 C   0  0  0  0  0  0  0  0  0  0  0  0
   -8.3656   18.4106   -8.1144 N   0  0  0  0  0  0  0  0  0  0  0  0
   -8.3174   17.0577   -8.0920 C   0  0  0  0  0  0  0  0  0  0  0  0
   -8.7718   16.6230   -6.9261 N   0  0  0  0  0  0  0  0  0  0  0  0
   -9.1248   17.6544   -6.1636 C   0  0  0  0  0  0  0  0  0  0  0  0
   -8.8825   18.8173   -6.8935 C   0  0  0  0  0  0  0  0  0  0  0  0
   -9.1718   20.0630   -6.3125 C   0  0  0  0  0  0  0  0  0  0  0  0
   -8.9686   21.0930   -6.9316 O   0  0  0  0  0  0  0  0  0  0  0  0
   -9.6772   20.1080   -5.0626 N   0  0  0  0  0  0  0  0  0  0  0  0
   -9.9080   18.9816   -4.3666 C   0  0  0  0  0  0  0  0  0  0  0  0
  -10.3652   19.0622   -3.2427 O   0  0  0  0  0  0  0  0  0  0  0  0
   -9.6481   17.7661   -4.8842 N   0  0  0  0  0  0  0  0  0  0  0  0
   -9.9138   16.5615   -4.0939 C   0  0  0  0  0  0  0  0  0  0  0  0
   -6.4583   14.6361   -9.2279 C   0  0  0  0  0  0  0  0  0  0  0  0
   -6.2427   13.3279   -9.6142 C   0  0  0  0  0  0  0  0  0  0  0  0
   -7.1387   12.6981  -10.4586 C   0  0  0  0  0  0  0  0  0  0  0  0
   -8.2526   13.3756  -10.9193 C   0  0  0  0  0  0  0  0  0  0  0  0
   -8.4739   14.6843  -10.5366 C   0  0  0  0  0  0  0  0  0  0  0  0
   -7.5792   15.3176   -9.6843 C   0  0  0  0  0  0  0  0  0  0  0  0
   -5.5787   14.7047   -6.9104 C   0  0  0  0  0  0  0  0  0  0  0  0
   -5.4817   15.3214   -8.3073 C   0  0  0  0  0  0  0  0  0  0  0  0
   -9.9800   21.4058   -4.4542 C   0  0  0  0  0  0  0  0  0  0  0  0
  -11.1549   22.0305   -5.1616 C   0  0  0  0  0  0  0  0  0  0  0  0
  -11.0074   23.2062   -5.8038 N   0  0  0  0  0  0  0  0  0  0  0  0
  -12.2330   21.4752   -5.1531 O   0  0  0  0  0  0  0  0  0  0  0  0
   -9.3399   13.0578   -2.1246 H   0  0  0  0  0  0  0  0  0  0  0  0
   -9.3399   13.0578   -2.1246 H   0  0  0  0  0  0  0  0  0  0  0  0
 24 25  1  0  0  0
 25 18  1  0  0  0
 18 23  2  0  0  0
 18 19  1  0  0  0
 19 20  2  0  0  0
 20 21  1  0  0  0
 21 22  2  0  0  0
 22 23  1  0  0  0
 23  1  1  0  0  0
  1  7  1  0  0  0
  1  2  1  0  0  0
  2  3  1  0  0  0
  2  4  2  0  0  0
  4  5  1  0  0  0
  4  6  1  0  0  0
  6 10  1  0  0  0
  6  7  1  0  0  0
  7  8  2  0  0  0
  8  9  1  0  0  0
  9 16  1  0  0  0
  9 10  2  0  0  0
 10 11  1  0  0  0
 11 12  2  0  0  0
 11 13  1  0  0  0
 13 26  1  0  0  0
 13 14  1  0  0  0
 26 27  1  0  0  0
 27 28  1  0  0  0
 27 29  2  0  0  0
 14 15  2  0  0  0
 14 16  1  0  0  0
 16 17  1  0  0  0
 28 30  1  0  0  0
 28 31  1  0  0  0
M  END
> <minimizedAffinity>
-8.27668

$$$$
ZINC000585293271


 26 28  0  0  0  0  0  0  0  0999 V2000
   -7.1035   16.7564   -9.1069 N   0  0  0  0  0  0  0  0  0  0  0  0
   -7.5585   18.0698   -8.6030 C   0  0  0  0  0  0  0  0  0  0  0  0
   -8.7876   17.7490   -7.7163 C   0  0  0  0  0  0  0  0  0  0  0  0
   -8.3558   16.4146   -7.0531 C   0  0  0  0  0  0  0  0  0  0  0  0
   -9.4991   15.6431   -6.6792 O   0  0  0  0  0  0  0  0  0  0  0  0
   -7.5633   15.7131   -8.1721 C   0  0  0  0  0  0  0  0  0  0  0  0
   -6.5180   18.0893  -11.9580 H   0  0  0  0  0  0  0  0  0  0  0  0
   -6.5180   18.0893  -11.9580 H   0  0  0  0  0  0  0  0  0  0  0  0
   -9.0014   18.8230   -6.6810 C   0  0  0  0  0  0  0  0  0  0  0  0
   -8.8368   18.5321   -5.3396 C   0  0  0  0  0  0  0  0  0  0  0  0
   -9.0327   19.5167   -4.3896 C   0  0  0  0  0  0  0  0  0  0  0  0
   -9.3936   20.7935   -4.7814 C   0  0  0  0  0  0  0  0  0  0  0  0
   -9.6394   22.0309   -3.5887 Cl  0  0  0  0  0  0  0  0  0  0  0  0
   -9.5582   21.0841   -6.1239 C   0  0  0  0  0  0  0  0  0  0  0  0
   -9.3564   20.1001   -7.0734 C   0  0  0  0  0  0  0  0  0  0  0  0
   -8.4653   14.7159   -8.9022 C   0  0  0  0  0  0  0  0  0  0  0  0
   -7.8585   13.4223   -8.8831 O   0  0  0  0  0  0  0  0  0  0  0  0
  -10.2857   19.3191   -8.9831 H   0  0  0  0  0  0  0  0  0  0  0  0
   -7.6740   16.5133  -10.4386 C   0  0  0  0  0  0  0  0  0  0  0  0
   -5.2792   14.7885  -11.5930 C   0  0  0  0  0  0  0  0  0  0  0  0
   -5.6340   16.1947  -12.0024 C   0  0  0  0  0  0  0  0  0  0  0  0
   -5.0087   16.9137  -12.8989 N   0  0  0  0  0  0  0  0  0  0  0  0
   -5.6471   18.1576  -12.9853 N   0  0  0  0  0  0  0  0  0  0  0  0
   -6.6748   18.1587  -12.1108 C   0  0  0  0  0  0  0  0  0  0  0  0
   -6.6925   16.9545  -11.4937 C   0  0  0  0  0  0  0  0  0  0  0  0
   -5.9027   17.1163  -12.0596 H   0  0  0  0  0  0  0  0  0  0  0  0
 20 21  1  0  0  0
 21 25  1  0  0  0
 21 22  2  0  0  0
 22 23  1  0  0  0
 23 24  1  0  0  0
 24 25  2  0  0  0
 25 19  1  0  0  0
 19  1  1  0  0  0
  1  6  1  0  0  0
  1  2  1  0  0  0
  2  3  1  0  0  0
  3  9  1  0  0  0
  3  4  1  0  0  0
  9 15  1  0  0  0
  9 10  2  0  0  0
 10 11  1  0  0  0
 11 12  2  0  0  0
 12 13  1  0  0  0
 12 14  1  0  0  0
 14 15  2  0  0  0
  4  5  1  0  0  0
  4  6  1  0  0  0
  6 16  1  0  0  0
 16 17  1  0  0  0
 23 26  1  0  0  0
  1  7  1  0  0  0
  5  8  1  0  0  0
 17 18  1  0  0  0
M  CHG 1   1   1
M  END
> <minimizedAffinity>
-7.76126

$$$$
ZINC000033573636


 24 27  0  0  0  0  0  0  0  0999 V2000
   -7.3342   17.3386   -7.9916 C   0  0  0  0  0  0  0  0  0  0  0  0
   -7.4912   18.0265   -9.2762 C   0  0  0  0  0  0  0  0  0  0  0  0
   -6.8182   17.6399  -10.3502 N   0  0  0  0  0  0  0  0  0  0  0  0
   -6.9892   18.2897  -11.4982 C   0  0  0  0  0  0  0  0  0  0  0  0
   -6.2911   17.9073  -12.6629 C   0  0  0  0  0  0  0  0  0  0  0  0
   -6.4894   18.5919  -13.8184 C   0  0  0  0  0  0  0  0  0  0  0  0
   -7.3707   19.6721  -13.8894 C   0  0  0  0  0  0  0  0  0  0  0  0
   -8.0736   20.0920  -12.8070 C   0  0  0  0  0  0  0  0  0  0  0  0
   -7.9161   19.4254  -11.5723 C   0  0  0  0  0  0  0  0  0  0  0  0
   -8.5896   19.8109  -10.4940 N   0  0  0  0  0  0  0  0  0  0  0  0
   -8.4183   19.1613   -9.3479 C   0  0  0  0  0  0  0  0  0  0  0  0
   -9.1172   19.5422   -8.1816 C   0  0  0  0  0  0  0  0  0  0  0  0
   -8.9334   18.8705   -7.0167 C   0  0  0  0  0  0  0  0  0  0  0  0
   -8.0702   17.7857   -6.9063 C   0  0  0  0  0  0  0  0  0  0  0  0
   -7.1797   12.0923  -11.3088 C   0  0  0  0  0  0  0  0  0  0  0  0
   -7.2110   12.8240  -10.0352 N   0  0  0  0  0  0  0  0  0  0  0  0
   -8.0132   14.0436  -10.1931 C   0  0  0  0  0  0  0  0  0  0  0  0
   -8.1422   14.7479   -8.8385 C   0  0  0  0  0  0  0  0  0  0  0  0
   -6.7919   14.9747   -8.3005 N   0  0  0  0  0  0  0  0  0  0  0  0
   -6.4174   16.1916   -7.8586 C   0  0  0  0  0  0  0  0  0  0  0  0
   -5.3233   16.3437   -7.3501 O   0  0  0  0  0  0  0  0  0  0  0  0
   -5.8621   13.8355   -8.2581 C   0  0  0  0  0  0  0  0  0  0  0  0
   -5.8411   13.1761   -9.6413 C   0  0  0  0  0  0  0  0  0  0  0  0
   -7.2232   12.9332   -5.5177 H   0  0  0  0  0  0  0  0  0  0  0  0
 15 16  1  0  0  0
 16 23  1  0  0  0
 16 17  1  0  0  0
 17 18  1  0  0  0
 18 19  1  0  0  0
 19 20  1  0  0  0
 19 22  1  0  0  0
 20 21  2  0  0  0
 20  1  1  0  0  0
  1 14  2  0  0  0
  1  2  1  0  0  0
  2 11  1  0  0  0
  2  3  2  0  0  0
  3  4  1  0  0  0
  4  9  2  0  0  0
  4  5  1  0  0  0
  5  6  2  0  0  0
  6  7  1  0  0  0
  7  8  2  0  0  0
  8  9  1  0  0  0
  9 10  1  0  0  0
 10 11  2  0  0  0
 11 12  1  0  0  0
 12 13  2  0  0  0
 13 14  1  0  0  0
 22 23  1  0  0  0
 16 24  1  0  0  0
M  CHG 1  16   1
M  END
> <minimizedAffinity>
-9.30716

$$$$
ZINC000023505484


 27 30  0  0  0  0  0  0  0  0999 V2000
  -10.3674   16.3346   -7.0619 O   0  0  0  0  0  0  0  0  0  0  0  0
   -9.2278   16.5559   -6.7109 C   0  0  0  0  0  0  0  0  0  0  0  0
   -8.1959   16.0370   -7.4054 N   0  0  0  0  0  0  0  0  0  0  0  0
   -6.8100   16.2912   -6.9889 C   0  0  0  0  0  0  0  0  0  0  0  0
   -6.0326   16.8568   -8.1816 C   0  0  0  0  0  0  0  0  0  0  0  0
   -6.1666   15.9034   -9.3712 C   0  0  0  0  0  0  0  0  0  0  0  0
   -7.6398   15.7837   -9.7678 C   0  0  0  0  0  0  0  0  0  0  0  0
   -8.4356   15.2014   -8.5899 C   0  0  0  0  0  0  0  0  0  0  0  0
   -8.9657   17.4061   -5.4945 C   0  0  0  0  0  0  0  0  0  0  0  0
   -9.1405   18.8192   -5.8394 N   0  0  0  0  0  0  0  0  0  0  0  0
   -8.9466   19.2246   -7.1602 N   0  0  0  0  0  0  0  0  0  0  0  0
   -9.0831   20.4592   -7.5428 C   0  0  0  0  0  0  0  0  0  0  0  0
   -9.4547   21.4892   -6.5724 C   0  0  0  0  0  0  0  0  0  0  0  0
   -9.6111   22.8263   -6.9416 C   0  0  0  0  0  0  0  0  0  0  0  0
   -9.9615   23.7575   -5.9895 C   0  0  0  0  0  0  0  0  0  0  0  0
  -10.1608   23.3815   -4.6676 C   0  0  0  0  0  0  0  0  0  0  0  0
  -10.0121   22.0678   -4.2797 C   0  0  0  0  0  0  0  0  0  0  0  0
   -9.6579   21.1080   -5.2261 C   0  0  0  0  0  0  0  0  0  0  0  0
   -9.4901   19.6927   -4.8724 C   0  0  0  0  0  0  0  0  0  0  0  0
   -9.6585   19.3153   -3.7266 O   0  0  0  0  0  0  0  0  0  0  0  0
   -7.7691   14.8568  -10.9782 C   0  0  0  0  0  0  0  0  0  0  0  0
   -6.7402   13.8108  -10.9062 N   0  0  0  0  0  0  0  0  0  0  0  0
   -5.7829   13.9364  -12.0149 C   0  0  0  0  0  0  0  0  0  0  0  0
   -4.6972   12.8670  -11.8681 C   0  0  0  0  0  0  0  0  0  0  0  0
   -5.3099   11.5755  -11.8254 O   0  0  0  0  0  0  0  0  0  0  0  0
   -6.2476   11.4182  -10.7572 C   0  0  0  0  0  0  0  0  0  0  0  0
   -7.3491   12.4728  -10.8927 C   0  0  0  0  0  0  0  0  0  0  0  0
  1  2  2  0  0  0
  2  9  1  0  0  0
  2  3  1  0  0  0
  9 10  1  0  0  0
 10 19  1  0  0  0
 10 11  1  0  0  0
 11 12  2  0  0  0
 12 13  1  0  0  0
 13 18  2  0  0  0
 13 14  1  0  0  0
 14 15  2  0  0  0
 15 16  1  0  0  0
 16 17  2  0  0  0
 17 18  1  0  0  0
 18 19  1  0  0  0
 19 20  2  0  0  0
  3  8  1  0  0  0
  3  4  1  0  0  0
  4  5  1  0  0  0
  5  6  1  0  0  0
  6  7  1  0  0  0
  7 21  1  0  0  0
  7  8  1  0  0  0
 21 22  1  0  0  0
 22 27  1  0  0  0
 22 23  1  0  0  0
 23 24  1  0  0  0
 24 25  1  0  0  0
 25 26  1  0  0  0
 26 27  1  0  0  0
M  END
> <minimizedAffinity>
-7.92687

$$$$
ZINC000019820843


 22 24  0  0  0  0  0  0  0  0999 V2000
   -6.9510   18.1728  -11.0267 C   0  0  0  0  0  0  0  0  0  0  0  0
   -7.0848   17.8171   -9.6691 C   0  0  0  0  0  0  0  0  0  0  0  0
   -6.3746   16.8100   -9.1488 N   0  0  0  0  0  0  0  0  0  0  0  0
   -6.4946   16.4727   -7.8807 C   0  0  0  0  0  0  0  0  0  0  0  0
   -7.3700   17.1526   -7.0210 C   0  0  0  0  0  0  0  0  0  0  0  0
   -8.1189   18.1868   -7.4945 C   0  0  0  0  0  0  0  0  0  0  0  0
   -9.0659   18.9327   -6.5901 C   0  0  0  0  0  0  0  0  0  0  0  0
   -7.9854   18.5425   -8.8530 C   0  0  0  0  0  0  0  0  0  0  0  0
   -8.7275   19.5986   -9.4039 C   0  0  0  0  0  0  0  0  0  0  0  0
   -8.5777   19.9200  -10.7192 C   0  0  0  0  0  0  0  0  0  0  0  0
   -7.6910   19.2179  -11.5305 C   0  0  0  0  0  0  0  0  0  0  0  0
   -6.2472   17.6680  -13.2406 C   0  0  0  0  0  0  0  0  0  0  0  0
   -6.0931   17.4918  -11.8309 O   0  0  0  0  0  0  0  0  0  0  0  0
   -5.5331   15.1375   -7.2503 S   0  0  0  0  0  0  0  0  0  0  0  0
   -5.1766   14.2531   -8.7888 C   0  0  0  0  0  0  0  0  0  0  0  0
   -6.1856   13.1172   -8.9696 C   0  0  0  0  0  0  0  0  0  0  0  0
   -6.7933   13.2098  -10.3037 N   0  0  0  0  0  0  0  0  0  0  0  0
   -5.8958   13.8952  -11.2451 C   0  0  0  0  0  0  0  0  0  0  0  0
   -6.5412   13.9168  -12.6333 C   0  0  0  0  0  0  0  0  0  0  0  0
   -7.8215   14.5484  -12.5484 O   0  0  0  0  0  0  0  0  0  0  0  0
   -8.7212   13.9064  -11.6409 C   0  0  0  0  0  0  0  0  0  0  0  0
   -8.0980   13.8847  -10.2426 C   0  0  0  0  0  0  0  0  0  0  0  0
 12 13  1  0  0  0
 13  1  1  0  0  0
  1 11  2  0  0  0
  1  2  1  0  0  0
  2  8  2  0  0  0
  2  3  1  0  0  0
  3  4  2  0  0  0
  4 14  1  0  0  0
  4  5  1  0  0  0
 14 15  1  0  0  0
 15 16  1  0  0  0
 16 17  1  0  0  0
 17 22  1  0  0  0
 17 18  1  0  0  0
 18 19  1  0  0  0
 19 20  1  0  0  0
 20 21  1  0  0  0
 21 22  1  0  0  0
  5  6  2  0  0  0
  6  7  1  0  0  0
  6  8  1  0  0  0
  8  9  1  0  0  0
  9 10  2  0  0  0
 10 11  1  0  0  0
M  END
> <minimizedAffinity>
-7.37869

$$$$
ZINC000069659525


 25 27  0  0  0  0  0  0  0  0999 V2000
   -9.4820   19.6465   -5.2148 N   0  0  0  0  0  0  0  0  0  0  0  0
   -9.8797   20.6958   -6.1619 C   0  0  0  0  0  0  0  0  0  0  0  0
   -9.0669   20.5563   -7.4510 C   0  0  0  0  0  0  0  0  0  0  0  0
   -9.3161   19.1730   -8.0586 C   0  0  0  0  0  0  0  0  0  0  0  0
   -8.9393   18.0989   -7.0345 C   0  0  0  0  0  0  0  0  0  0  0  0
   -9.7559   18.3097   -5.7575 C   0  0  0  0  0  0  0  0  0  0  0  0
   -8.4723   19.0071   -9.2961 C   0  0  0  0  0  0  0  0  0  0  0  0
   -7.4201   18.1109   -9.2992 C   0  0  0  0  0  0  0  0  0  0  0  0
   -6.6446   17.9568  -10.4332 C   0  0  0  0  0  0  0  0  0  0  0  0
   -6.9218   18.6998  -11.5671 C   0  0  0  0  0  0  0  0  0  0  0  0
   -6.1647   18.5495  -12.6759 F   0  0  0  0  0  0  0  0  0  0  0  0
   -7.9779   19.5988  -11.5643 C   0  0  0  0  0  0  0  0  0  0  0  0
   -8.2503   20.3255  -12.6701 F   0  0  0  0  0  0  0  0  0  0  0  0
   -8.7552   19.7472  -10.4291 C   0  0  0  0  0  0  0  0  0  0  0  0
  -10.1414   19.8325   -3.9154 C   0  0  0  0  0  0  0  0  0  0  0  0
   -6.3018   21.4469   -0.0154 C   0  0  0  0  0  0  0  0  0  0  0  0
   -7.2802   21.0166   -1.0174 N   0  0  0  0  0  0  0  0  0  0  0  0
   -7.2444   19.7553   -1.4924 C   0  0  0  0  0  0  0  0  0  0  0  0
   -6.4024   18.9715   -1.0925 O   0  0  0  0  0  0  0  0  0  0  0  0
   -8.1951   19.3502   -2.4601 C   0  0  0  0  0  0  0  0  0  0  0  0
   -9.1181   20.2386   -2.8863 C   0  0  0  0  0  0  0  0  0  0  0  0
   -9.1204   21.5095   -2.3791 N   0  0  0  0  0  0  0  0  0  0  0  0
  -10.1221   22.4735   -2.8411 C   0  0  0  0  0  0  0  0  0  0  0  0
   -8.2146   21.8805   -1.4560 C   0  0  0  0  0  0  0  0  0  0  0  0
   -8.2345   23.0148   -1.0187 O   0  0  0  0  0  0  0  0  0  0  0  0
 16 17  1  0  0  0
 17 24  1  0  0  0
 17 18  1  0  0  0
 18 19  2  0  0  0
 18 20  1  0  0  0
 20 21  2  0  0  0
 21 15  1  0  0  0
 21 22  1  0  0  0
 15  1  1  0  0  0
  1  6  1  0  0  0
  1  2  1  0  0  0
  2  3  1  0  0  0
  3  4  1  0  0  0
  4  7  1  0  0  0
  4  5  1  0  0  0
  7 14  1  0  0  0
  7  8  2  0  0  0
  8  9  1  0  0  0
  9 10  2  0  0  0
 10 11  1  0  0  0
 10 12  1  0  0  0
 12 13  1  0  0  0
 12 14  2  0  0  0
  5  6  1  0  0  0
 22 23  1  0  0  0
 22 24  1  0  0  0
 24 25  2  0  0  0
M  END
> <minimizedAffinity>
-7.50257

$$$$
ZINC000015932762


 27 29  0  0  0  0  0  0  0  0999 V2000
   -8.8493   16.5328   -5.5488 S   0  0  0  0  0  0  0  0  0  0  0  0
   -9.5426   20.2425   -6.7271 C   0  0  0  0  0  0  0  0  0  0  0  0
   -9.4611   19.2752   -5.7461 C   0  0  0  0  0  0  0  0  0  0  0  0
   -9.0901   18.0766   -6.3631 C   0  0  0  0  0  0  0  0  0  0  0  0
   -8.9509   18.2935   -7.6516 N   0  0  0  0  0  0  0  0  0  0  0  0
   -9.2322   19.6398   -7.9145 N   0  0  0  0  0  0  0  0  0  0  0  0
   -9.9460   22.4948   -7.5878 H   0  0  0  0  0  0  0  0  0  0  0  0
   -9.7197   19.4713   -4.3018 N   0  0  0  0  0  0  0  0  0  0  0  0
   -8.7886   19.6253   -3.5319 O   0  0  0  0  0  0  0  0  0  0  0  0
  -10.8636   19.4785   -3.8833 O   0  0  0  0  0  0  0  0  0  0  0  0
   -9.9021   21.6548   -6.5327 C   0  0  0  0  0  0  0  0  0  0  0  0
  -11.0423   21.9570   -6.2395 O   0  0  0  0  0  0  0  0  0  0  0  0
   -8.9665   23.6896   -5.7033 C   0  0  0  0  0  0  0  0  0  0  0  0
   -8.9669   22.6147   -6.6796 O   0  0  0  0  0  0  0  0  0  0  0  0
   -8.4980   15.5060   -6.9370 C   0  0  0  0  0  0  0  0  0  0  0  0
   -9.3361   14.6953   -7.5402 N   0  0  0  0  0  0  0  0  0  0  0  0
   -8.7443   14.1017   -8.5145 N   0  0  0  0  0  0  0  0  0  0  0  0
   -7.5041   14.4945   -8.5906 C   0  0  0  0  0  0  0  0  0  0  0  0
   -7.3042   15.4074   -7.5925 N   0  0  0  0  0  0  0  0  0  0  0  0
   -6.0639   16.1234   -7.2841 C   0  0  0  0  0  0  0  0  0  0  0  0
   -6.4813   14.0330   -9.5967 C   0  0  0  0  0  0  0  0  0  0  0  0
   -6.4506   14.9665  -10.7252 N   0  0  0  0  0  0  0  0  0  0  0  0
   -7.3255   14.9999  -11.7520 C   0  0  0  0  0  0  0  0  0  0  0  0
   -6.9516   16.0027  -12.5801 C   0  0  0  0  0  0  0  0  0  0  0  0
   -5.8090   16.6026  -12.0409 C   0  0  0  0  0  0  0  0  0  0  0  0
   -5.0551   17.7631  -12.6376 C   0  0  0  0  0  0  0  0  0  0  0  0
   -5.5113   15.9862  -10.9258 N   0  0  0  0  0  0  0  0  0  0  0  0
 13 14  1  0  0  0
 14 11  1  0  0  0
 11 12  2  0  0  0
 11  2  1  0  0  0
  2  6  1  0  0  0
  2  3  2  0  0  0
  3  8  1  0  0  0
  3  4  1  0  0  0
  8  9  1  0  0  0
  8 10  2  0  0  0
  4  1  1  0  0  0
  4  5  2  0  0  0
  1 15  1  0  0  0
 15 19  1  0  0  0
 15 16  2  0  0  0
 16 17  1  0  0  0
 17 18  2  0  0  0
 18 21  1  0  0  0
 18 19  1  0  0  0
 21 22  1  0  0  0
 22 27  1  0  0  0
 22 23  1  0  0  0
 23 24  2  0  0  0
 24 25  1  0  0  0
 25 26  1  0  0  0
 25 27  2  0  0  0
 19 20  1  0  0  0
  5  6  1  0  0  0
  6  7  1  0  0  0
M  CHG 1   8   1
M  CHG 1   9  -1
M  END
> <minimizedAffinity>
-6.95260

$$$$
ZINC000257230161


 24 27  0  0  0  0  0  0  0  0999 V2000
   -6.5187   14.8035   -8.6917 N   0  0  0  0  0  0  0  0  0  0  0  0
   -5.7504   13.7727   -9.3961 C   0  0  0  0  0  0  0  0  0  0  0  0
   -6.5355   13.4164  -10.6747 C   0  0  0  0  0  0  0  0  0  0  0  0
   -5.5293   13.2984  -11.8375 C   0  0  0  0  0  0  0  0  0  0  0  0
   -5.2678   14.7470  -12.2887 C   0  0  0  0  0  0  0  0  0  0  0  0
   -6.5590   15.5222  -11.9815 C   0  0  0  0  0  0  0  0  0  0  0  0
   -7.3694   14.6861  -10.9618 C   0  0  0  0  0  0  0  0  0  0  0  0
   -7.4875   15.4040   -9.6138 C   0  0  0  0  0  0  0  0  0  0  0  0
   -5.2657   16.1636   -7.0574 O   0  0  0  0  0  0  0  0  0  0  0  0
   -6.3272   15.2199   -7.1003 S   0  0  0  0  0  0  0  0  0  0  0  0
   -6.3160   14.0035   -6.3659 O   0  0  0  0  0  0  0  0  0  0  0  0
   -7.7817   16.0845   -6.6087 C   0  0  0  0  0  0  0  0  0  0  0  0
   -7.8680   17.4591   -6.7658 C   0  0  0  0  0  0  0  0  0  0  0  0
   -9.0321   18.0973   -6.3653 C   0  0  0  0  0  0  0  0  0  0  0  0
  -10.0602   17.3473   -5.8267 C   0  0  0  0  0  0  0  0  0  0  0  0
   -9.9431   16.0406   -5.6921 N   0  0  0  0  0  0  0  0  0  0  0  0
   -8.8533   15.3998   -6.0669 C   0  0  0  0  0  0  0  0  0  0  0  0
   -6.2389   16.7978  -11.4226 O   0  0  0  0  0  0  0  0  0  0  0  0
   -6.7619   17.8903  -12.0391 C   0  0  0  0  0  0  0  0  0  0  0  0
   -7.5497   18.7809  -11.3244 C   0  0  0  0  0  0  0  0  0  0  0  0
   -8.0798   19.8908  -11.9532 C   0  0  0  0  0  0  0  0  0  0  0  0
   -7.8262   20.1142  -13.2940 C   0  0  0  0  0  0  0  0  0  0  0  0
   -7.0419   19.2278  -14.0086 C   0  0  0  0  0  0  0  0  0  0  0  0
   -6.5044   18.1197  -13.3829 C   0  0  0  0  0  0  0  0  0  0  0  0
  9 10  2  0  0  0
 10 11  2  0  0  0
 10 12  1  0  0  0
 10  1  1  0  0  0
 12 17  1  0  0  0
 12 13  2  0  0  0
 13 14  1  0  0  0
 14 15  2  0  0  0
 15 16  1  0  0  0
 16 17  2  0  0  0
  1  8  1  0  0  0
  1  2  1  0  0  0
  2  3  1  0  0  0
  3  7  1  0  0  0
  3  4  1  0  0  0
  4  5  1  0  0  0
  5  6  1  0  0  0
  6 18  1  0  0  0
  6  7  1  0  0  0
 18 19  1  0  0  0
 19 24  1  0  0  0
 19 20  2  0  0  0
 20 21  1  0  0  0
 21 22  2  0  0  0
 22 23  1  0  0  0
 23 24  2  0  0  0
  7  8  1  0  0  0
M  END
> <minimizedAffinity>
-7.97780

$$$$
ZINC000038583074


 33 36  0  0  0  0  0  0  0  0999 V2000
   -9.9975   16.3020   -5.1983 C   0  0  0  0  0  0  0  0  0  0  0  0
   -9.8882   15.6433   -3.8144 C   0  0  0  0  0  0  0  0  0  0  0  0
  -11.2196   15.4399   -3.3063 O   0  0  0  0  0  0  0  0  0  0  0  0
  -11.5815   16.6336   -2.5889 C   0  0  0  0  0  0  0  0  0  0  0  0
  -10.3355   17.5454   -2.6781 C   0  0  0  0  0  0  0  0  0  0  0  0
   -9.2476   16.5901   -2.9311 O   0  0  0  0  0  0  0  0  0  0  0  0
  -10.4866   18.4229   -3.9316 C   0  0  0  0  0  0  0  0  0  0  0  0
  -10.9163   17.5244   -5.0959 C   0  0  0  0  0  0  0  0  0  0  0  0
  -12.2430   17.0461   -4.8651 O   0  0  0  0  0  0  0  0  0  0  0  0
   -9.9779   15.9387  -10.6075 H   0  0  0  0  0  0  0  0  0  0  0  0
   -9.1941   19.0378   -4.2621 N   0  0  0  0  0  0  0  0  0  0  0  0
  -10.9935   17.8455  -11.0314 H   0  0  0  0  0  0  0  0  0  0  0  0
  -10.9935   17.8455  -11.0314 H   0  0  0  0  0  0  0  0  0  0  0  0
   -9.4183   20.2482   -5.0638 C   0  0  0  0  0  0  0  0  0  0  0  0
  -10.3059   21.2198   -4.2834 C   0  0  0  0  0  0  0  0  0  0  0  0
  -11.1275   22.0595   -5.2634 C   0  0  0  0  0  0  0  0  0  0  0  0
  -10.8327   23.4834   -5.0550 N   0  0  0  0  0  0  0  0  0  0  0  0
  -10.0070   24.0159   -6.1486 C   0  0  0  0  0  0  0  0  0  0  0  0
   -9.7741   25.5122   -5.9230 C   0  0  0  0  0  0  0  0  0  0  0  0
   -9.1679   25.7074   -4.6424 O   0  0  0  0  0  0  0  0  0  0  0  0
   -9.9455   25.2011   -3.5542 C   0  0  0  0  0  0  0  0  0  0  0  0
  -10.1802   23.7017   -3.7558 C   0  0  0  0  0  0  0  0  0  0  0  0
   -8.7010   16.7128   -5.6369 O   0  0  0  0  0  0  0  0  0  0  0  0
   -8.2240   16.0114   -6.9006 S   0  0  0  0  0  0  0  0  0  0  0  0
   -9.2269   15.0621   -7.2355 O   0  0  0  0  0  0  0  0  0  0  0  0
   -6.8655   15.6606   -6.6762 O   0  0  0  0  0  0  0  0  0  0  0  0
   -8.2167   20.1125  -11.3264 C   0  0  0  0  0  0  0  0  0  0  0  0
   -8.2185   19.0882  -10.2209 C   0  0  0  0  0  0  0  0  0  0  0  0
   -7.2680   18.0846  -10.2070 C   0  0  0  0  0  0  0  0  0  0  0  0
   -7.2696   17.1451   -9.1930 C   0  0  0  0  0  0  0  0  0  0  0  0
   -8.2215   17.2094   -8.1927 C   0  0  0  0  0  0  0  0  0  0  0  0
   -9.1712   18.2138   -8.2058 C   0  0  0  0  0  0  0  0  0  0  0  0
   -9.1672   19.1556   -9.2178 C   0  0  0  0  0  0  0  0  0  0  0  0
 27 28  1  0  0  0
 28 33  2  0  0  0
 28 29  1  0  0  0
 29 30  2  0  0  0
 30 31  1  0  0  0
 31 24  1  0  0  0
 31 32  2  0  0  0
 24 25  2  0  0  0
 24 26  2  0  0  0
 24 23  1  0  0  0
 23  1  1  0  0  0
  1  8  1  0  0  0
  1  2  1  0  0  0
  2  6  1  0  0  0
  2  3  1  0  0  0
  3  4  1  0  0  0
  4  5  1  0  0  0
  5  6  1  0  0  0
  5  7  1  0  0  0
  7 11  1  0  0  0
  7  8  1  0  0  0
 11 14  1  0  0  0
 14 15  1  0  0  0
 15 16  1  0  0  0
 16 17  1  0  0  0
 17 22  1  0  0  0
 17 18  1  0  0  0
 18 19  1  0  0  0
 19 20  1  0  0  0
 20 21  1  0  0  0
 21 22  1  0  0  0
  8  9  1  0  0  0
 32 33  1  0  0  0
 11 12  1  0  0  0
 11 13  1  0  0  0
  9 10  1  0  0  0
M  CHG 1  11   1
M  END
> <minimizedAffinity>
-7.50062

$$$$
ZINC000067774852


 23 25  0  0  0  0  0  0  0  0999 V2000
   -5.9760   11.8791   -8.9578 C   0  0  0  0  0  0  0  0  0  0  0  0
   -5.6719   12.7877  -10.0713 N   0  0  0  0  0  0  0  0  0  0  0  0
   -5.2963   14.1191   -9.5770 C   0  0  0  0  0  0  0  0  0  0  0  0
   -4.8142   14.9786  -10.7504 C   0  0  0  0  0  0  0  0  0  0  0  0
   -5.8527   14.9722  -11.7920 N   0  0  0  0  0  0  0  0  0  0  0  0
   -6.3095   16.1248  -12.3205 C   0  0  0  0  0  0  0  0  0  0  0  0
   -7.1662   16.1008  -13.1785 O   0  0  0  0  0  0  0  0  0  0  0  0
   -6.3790   13.6746  -12.2417 C   0  0  0  0  0  0  0  0  0  0  0  0
   -6.7995   12.8663  -11.0096 C   0  0  0  0  0  0  0  0  0  0  0  0
   -7.2002   11.4765  -11.4327 C   0  0  0  0  0  0  0  0  0  0  0  0
   -6.3917   10.7508  -11.9862 O   0  0  0  0  0  0  0  0  0  0  0  0
   -8.3328   11.0777  -11.2213 O   0  0  0  0  0  0  0  0  0  0  0  0
   -5.3413   12.9163  -10.8064 H   0  0  0  0  0  0  0  0  0  0  0  0
   -5.7557   17.4433  -11.8451 C   0  0  0  0  0  0  0  0  0  0  0  0
   -6.7467   18.0996  -10.9187 C   0  0  0  0  0  0  0  0  0  0  0  0
   -7.6262   19.0466  -11.4087 C   0  0  0  0  0  0  0  0  0  0  0  0
   -8.5375   19.6516  -10.5627 C   0  0  0  0  0  0  0  0  0  0  0  0
   -8.5704   19.3099   -9.2209 C   0  0  0  0  0  0  0  0  0  0  0  0
   -9.3548   19.7492   -8.1938 O   0  0  0  0  0  0  0  0  0  0  0  0
   -9.2167   18.7619   -7.1550 C   0  0  0  0  0  0  0  0  0  0  0  0
   -7.9134   18.1972   -7.3908 O   0  0  0  0  0  0  0  0  0  0  0  0
   -7.6839   18.3555   -8.7270 C   0  0  0  0  0  0  0  0  0  0  0  0
   -6.7781   17.7491   -9.5814 C   0  0  0  0  0  0  0  0  0  0  0  0
  1  2  1  0  0  0
  2  9  1  0  0  0
  2  3  1  0  0  0
  3  4  1  0  0  0
  4  5  1  0  0  0
  5  6  1  0  0  0
  5  8  1  0  0  0
  6  7  2  0  0  0
  6 14  1  0  0  0
 14 15  1  0  0  0
 15 23  1  0  0  0
 15 16  2  0  0  0
 16 17  1  0  0  0
 17 18  2  0  0  0
 18 22  1  0  0  0
 18 19  1  0  0  0
 19 20  1  0  0  0
 20 21  1  0  0  0
 21 22  1  0  0  0
 22 23  2  0  0  0
  8  9  1  0  0  0
  9 10  1  0  0  0
 10 11  2  0  0  0
 10 12  1  0  0  0
 12 13  1  0  0  0
M  END
> <minimizedAffinity>
-7.83238

$$$$
ZINC000001383102


 22 23  0  0  0  0  0  0  0  0999 V2000
   -7.4470   15.1896   -8.4807 C   0  0  0  0  0  0  0  0  0  0  0  0
   -6.5392   11.7491  -10.8530 C   0  0  0  0  0  0  0  0  0  0  0  0
   -5.7805   12.0403   -9.7313 C   0  0  0  0  0  0  0  0  0  0  0  0
   -6.0762   13.1537   -8.9664 C   0  0  0  0  0  0  0  0  0  0  0  0
   -7.1286   13.9778   -9.3181 C   0  0  0  0  0  0  0  0  0  0  0  0
   -7.8898   13.6930  -10.4369 C   0  0  0  0  0  0  0  0  0  0  0  0
   -7.5955   12.5821  -11.2104 C   0  0  0  0  0  0  0  0  0  0  0  0
   -5.0015   10.0055  -11.3545 C   0  0  0  0  0  0  0  0  0  0  0  0
   -6.2494   10.6547  -11.6065 O   0  0  0  0  0  0  0  0  0  0  0  0
   -8.3431   12.3007  -12.3111 O   0  0  0  0  0  0  0  0  0  0  0  0
   -9.1030   13.3736  -12.8708 C   0  0  0  0  0  0  0  0  0  0  0  0
   -6.3756   16.2590   -8.7031 C   0  0  0  0  0  0  0  0  0  0  0  0
   -6.9605   17.3944   -9.4206 N   0  0  0  0  0  0  0  0  0  0  0  0
   -7.7681   18.2432   -8.7607 C   0  0  0  0  0  0  0  0  0  0  0  0
   -8.3239   19.2747   -9.3333 N   0  0  0  0  0  0  0  0  0  0  0  0
   -8.1090   19.5405  -10.6352 C   0  0  0  0  0  0  0  0  0  0  0  0
   -8.6292   20.5061  -11.1695 O   0  0  0  0  0  0  0  0  0  0  0  0
   -7.2309   18.6389  -11.3991 C   0  0  0  0  0  0  0  0  0  0  0  0
   -6.6716   17.5682  -10.7289 C   0  0  0  0  0  0  0  0  0  0  0  0
   -5.7626   16.6046  -11.4474 C   0  0  0  0  0  0  0  0  0  0  0  0
   -6.9622   18.8666  -12.7871 C   0  0  0  0  0  0  0  0  0  0  0  0
   -6.7492   19.0472  -13.8883 N   0  0  0  0  0  0  0  0  0  0  0  0
  8  9  1  0  0  0
  9  2  1  0  0  0
  2  7  2  0  0  0
  2  3  1  0  0  0
  3  4  2  0  0  0
  4  5  1  0  0  0
  5  1  1  0  0  0
  5  6  2  0  0  0
  1 12  1  0  0  0
 12 13  1  0  0  0
 13 19  1  0  0  0
 13 14  1  0  0  0
 14 15  2  0  0  0
 15 16  1  0  0  0
 16 17  2  0  0  0
 16 18  1  0  0  0
 18 21  1  0  0  0
 18 19  2  0  0  0
 21 22  3  0  0  0
 19 20  1  0  0  0
  6  7  1  0  0  0
  7 10  1  0  0  0
 10 11  1  0  0  0
M  END
> <minimizedAffinity>
-7.04605

$$$$
ZINC000003022714


 32 34  0  0  0  0  0  0  0  0999 V2000
   -8.2231   15.4145   -6.2177 C   0  0  0  0  0  0  0  0  0  0  0  0
   -8.4728   15.6986   -7.5195 C   0  0  0  0  0  0  0  0  0  0  0  0
   -9.6853   16.0165   -8.0498 O   0  0  0  0  0  0  0  0  0  0  0  0
   -7.2878   15.6102   -8.2104 N   0  0  0  0  0  0  0  0  0  0  0  0
   -6.2929   15.2682   -7.3315 C   0  0  0  0  0  0  0  0  0  0  0  0
   -4.9819   15.0881   -7.6438 O   0  0  0  0  0  0  0  0  0  0  0  0
   -6.8372   15.1476   -6.1001 C   0  0  0  0  0  0  0  0  0  0  0  0
   -8.2309   15.0782   -3.6332 H   0  0  0  0  0  0  0  0  0  0  0  0
   -8.2309   15.0782   -3.6332 H   0  0  0  0  0  0  0  0  0  0  0  0
   -7.1239   15.8325   -9.5851 C   0  0  0  0  0  0  0  0  0  0  0  0
   -7.1723   17.1260  -10.0899 C   0  0  0  0  0  0  0  0  0  0  0  0
   -7.0118   17.3516  -11.4449 C   0  0  0  0  0  0  0  0  0  0  0  0
   -6.8023   16.2939  -12.3050 C   0  0  0  0  0  0  0  0  0  0  0  0
   -6.7513   14.9888  -11.8075 C   0  0  0  0  0  0  0  0  0  0  0  0
   -6.9079   14.7627  -10.4388 C   0  0  0  0  0  0  0  0  0  0  0  0
   -6.5274   13.8548  -12.7247 C   0  0  0  0  0  0  0  0  0  0  0  0
   -7.4277   13.0557  -12.9401 O   0  0  0  0  0  0  0  0  0  0  0  0
   -5.4416   13.7142  -13.2694 O   0  0  0  0  0  0  0  0  0  0  0  0
   -1.6627   21.2377   -9.9006 H   0  0  0  0  0  0  0  0  0  0  0  0
   -9.4044   15.3893   -4.9106 S   0  0  0  0  0  0  0  0  0  0  0  0
  -11.1829   17.4418   -4.6986 N   0  0  0  0  0  0  0  0  0  0  0  0
   -9.8660   17.0895   -4.8826 C   0  0  0  0  0  0  0  0  0  0  0  0
   -8.9494   18.0239   -5.0380 N   0  0  0  0  0  0  0  0  0  0  0  0
   -9.6149   14.8290   -6.5681 H   0  0  0  0  0  0  0  0  0  0  0  0
   -9.6149   14.8290   -6.5681 H   0  0  0  0  0  0  0  0  0  0  0  0
   -9.2874   19.2687   -5.0176 N   0  0  0  0  0  0  0  0  0  0  0  0
   -9.2384   19.9779   -6.1160 C   0  0  0  0  0  0  0  0  0  0  0  0
   -9.6217   21.3900   -6.0928 C   0  0  0  0  0  0  0  0  0  0  0  0
   -9.0577   22.3741   -6.8525 C   0  0  0  0  0  0  0  0  0  0  0  0
   -9.5937   23.6266   -6.6490 C   0  0  0  0  0  0  0  0  0  0  0  0
  -10.5769   23.6855   -5.7452 C   0  0  0  0  0  0  0  0  0  0  0  0
  -10.8866   22.0848   -5.0874 S   0  0  0  0  0  0  0  0  0  0  0  0
 21 22  1  0  0  0
 22 23  2  0  0  0
 22 20  1  0  0  0
 23 26  1  0  0  0
 26 27  2  0  0  0
 27 28  1  0  0  0
 28 32  1  0  0  0
 28 29  2  0  0  0
 29 30  1  0  0  0
 30 31  2  0  0  0
 31 32  1  0  0  0
 20  1  1  0  0  0
  1  7  1  0  0  0
  1  2  2  0  0  0
  2  3  1  0  0  0
  2  4  1  0  0  0
  4 10  1  0  0  0
  4  5  1  0  0  0
 10 15  1  0  0  0
 10 11  2  0  0  0
 11 12  1  0  0  0
 12 13  2  0  0  0
 13 14  1  0  0  0
 14 16  1  0  0  0
 14 15  2  0  0  0
 16 17  2  0  0  0
 16 18  1  0  0  0
  5  6  1  0  0  0
  5  7  2  0  0  0
 21 24  1  0  0  0
 21 25  1  0  0  0
  3  8  1  0  0  0
 18 19  1  0  0  0
  6  9  1  0  0  0
M  END
> <minimizedAffinity>
-7.51409

$$$$
ZINC000019016052


 29 32  0  0  0  0  0  0  0  0999 V2000
   -7.6518   15.9024   -6.6322 N   0  0  0  0  0  0  0  0  0  0  0  0
   -6.6763   14.8089   -6.6651 C   0  0  0  0  0  0  0  0  0  0  0  0
   -5.6051   15.0785   -7.7047 C   0  0  0  0  0  0  0  0  0  0  0  0
   -6.1138   15.5688   -9.0234 C   0  0  0  0  0  0  0  0  0  0  0  0
   -7.3730   16.4214   -9.0073 C   0  0  0  0  0  0  0  0  0  0  0  0
   -8.3439   15.9998   -7.9222 C   0  0  0  0  0  0  0  0  0  0  0  0
   -8.0262   16.1324  -10.3855 C   0  0  0  0  0  0  0  0  0  0  0  0
   -7.5500   14.7025  -10.7120 C   0  0  0  0  0  0  0  0  0  0  0  0
   -6.2777   14.5243  -10.0287 N   0  0  0  0  0  0  0  0  0  0  0  0
   -5.3714   13.5625  -10.2926 C   0  0  0  0  0  0  0  0  0  0  0  0
   -4.3401   13.5100   -9.6565 O   0  0  0  0  0  0  0  0  0  0  0  0
   -7.5344   17.1095  -11.4221 C   0  0  0  0  0  0  0  0  0  0  0  0
   -6.9104   16.6473  -12.5658 C   0  0  0  0  0  0  0  0  0  0  0  0
   -6.4590   17.5424  -13.5171 C   0  0  0  0  0  0  0  0  0  0  0  0
   -6.6322   18.9025  -13.3244 C   0  0  0  0  0  0  0  0  0  0  0  0
   -6.1916   19.7784  -14.2539 F   0  0  0  0  0  0  0  0  0  0  0  0
   -7.2576   19.3642  -12.1787 C   0  0  0  0  0  0  0  0  0  0  0  0
   -7.7125   18.4670  -11.2311 C   0  0  0  0  0  0  0  0  0  0  0  0
   -5.6393   12.5521  -11.3781 C   0  0  0  0  0  0  0  0  0  0  0  0
   -5.1747   11.1146  -11.1355 C   0  0  0  0  0  0  0  0  0  0  0  0
   -6.6654   11.4556  -11.0851 C   0  0  0  0  0  0  0  0  0  0  0  0
   -8.6097   15.7204   -5.5334 C   0  0  0  0  0  0  0  0  0  0  0  0
   -9.0248   18.1386   -5.2195 N   0  0  0  0  0  0  0  0  0  0  0  0
   -9.5286   16.9129   -5.4654 C   0  0  0  0  0  0  0  0  0  0  0  0
  -10.7214   16.7697   -5.6319 O   0  0  0  0  0  0  0  0  0  0  0  0
   -9.1116   20.5432   -4.8687 H   0  0  0  0  0  0  0  0  0  0  0  0
   -9.9181   19.2979   -5.1534 C   0  0  0  0  0  0  0  0  0  0  0  0
   -9.1995   20.0421   -7.3650 C   0  0  0  0  0  0  0  0  0  0  0  0
   -9.4414   20.3548   -6.1160 C   0  0  0  0  0  0  0  0  0  0  0  0
 28 29  2  0  0  0
 29 27  1  0  0  0
 27 23  1  0  0  0
 23 24  1  0  0  0
 24 25  2  0  0  0
 24 22  1  0  0  0
 22  1  1  0  0  0
  1  6  1  0  0  0
  1  2  1  0  0  0
  2  3  1  0  0  0
  3  4  1  0  0  0
  4  9  1  0  0  0
  4  5  1  0  0  0
  5  6  1  0  0  0
  5  7  1  0  0  0
  7 12  1  0  0  0
  7  8  1  0  0  0
 12 18  1  0  0  0
 12 13  2  0  0  0
 13 14  1  0  0  0
 14 15  2  0  0  0
 15 16  1  0  0  0
 15 17  1  0  0  0
 17 18  2  0  0  0
  8  9  1  0  0  0
  9 10  1  0  0  0
 10 11  2  0  0  0
 10 19  1  0  0  0
 19 21  1  0  0  0
 19 20  1  0  0  0
 20 21  1  0  0  0
 23 26  1  0  0  0
M  END
> <minimizedAffinity>
-6.92090

$$$$
ZINC000408642957


 32 34  0  0  0  0  0  0  0  0999 V2000
   -6.4802   18.1742  -10.1992 C   0  0  0  0  0  0  0  0  0  0  0  0
   -7.6120   19.0323  -10.8105 C   0  0  0  0  0  0  0  0  0  0  0  0
   -8.7006   19.0132   -9.7601 C   0  0  0  0  0  0  0  0  0  0  0  0
   -9.8567   19.3260   -9.9521 O   0  0  0  0  0  0  0  0  0  0  0  0
   -8.2003   18.5986   -8.5834 N   0  0  0  0  0  0  0  0  0  0  0  0
   -6.7646   18.3073   -8.6867 C   0  0  0  0  0  0  0  0  0  0  0  0
   -8.9520   18.4620   -7.4088 C   0  0  0  0  0  0  0  0  0  0  0  0
   -9.3950   17.2103   -7.0085 C   0  0  0  0  0  0  0  0  0  0  0  0
  -10.1361   17.0780   -5.8490 C   0  0  0  0  0  0  0  0  0  0  0  0
  -10.4378   18.1910   -5.0866 C   0  0  0  0  0  0  0  0  0  0  0  0
   -9.9995   19.4423   -5.4795 C   0  0  0  0  0  0  0  0  0  0  0  0
   -9.2516   19.5827   -6.6368 C   0  0  0  0  0  0  0  0  0  0  0  0
  -11.2317   18.0428   -3.8462 N   0  0  0  0  0  0  0  0  0  0  0  0
  -12.4042   17.7189   -3.9086 O   0  0  0  0  0  0  0  0  0  0  0  0
  -10.7125   18.2446   -2.7631 O   0  0  0  0  0  0  0  0  0  0  0  0
   -8.8195   20.8124   -7.0242 O   0  0  0  0  0  0  0  0  0  0  0  0
   -9.4437   21.9422   -6.4109 C   0  0  0  0  0  0  0  0  0  0  0  0
   -6.0714   15.7550   -9.8840 N   0  0  0  0  0  0  0  0  0  0  0  0
   -6.5912   16.7388  -10.6446 C   0  0  0  0  0  0  0  0  0  0  0  0
   -7.1483   16.4688  -11.6876 O   0  0  0  0  0  0  0  0  0  0  0  0
   -7.0317   12.6895  -13.3526 H   0  0  0  0  0  0  0  0  0  0  0  0
   -5.0524   12.6709  -11.6143 C   0  0  0  0  0  0  0  0  0  0  0  0
   -6.0911   11.8203  -11.2633 C   0  0  0  0  0  0  0  0  0  0  0  0
   -7.1177   12.2759  -10.4578 C   0  0  0  0  0  0  0  0  0  0  0  0
   -7.1133   13.5790   -9.9998 C   0  0  0  0  0  0  0  0  0  0  0  0
   -6.0761   14.4351  -10.3482 C   0  0  0  0  0  0  0  0  0  0  0  0
   -5.0418   13.9779  -11.1524 C   0  0  0  0  0  0  0  0  0  0  0  0
   -8.2142   14.0635   -9.1370 N   0  0  0  0  0  0  0  0  0  0  0  0
   -9.2843   14.3715   -9.6306 O   0  0  0  0  0  0  0  0  0  0  0  0
   -8.0500   14.1540   -7.9336 O   0  0  0  0  0  0  0  0  0  0  0  0
   -3.8381   10.8081  -12.4555 C   0  0  0  0  0  0  0  0  0  0  0  0
   -4.0434   12.2214  -12.4060 O   0  0  0  0  0  0  0  0  0  0  0  0
 31 32  1  0  0  0
 32 22  1  0  0  0
 22 27  2  0  0  0
 22 23  1  0  0  0
 23 24  2  0  0  0
 24 25  1  0  0  0
 25 28  1  0  0  0
 25 26  2  0  0  0
 28 29  1  0  0  0
 28 30  2  0  0  0
 26 18  1  0  0  0
 26 27  1  0  0  0
 18 19  1  0  0  0
 19 20  2  0  0  0
 19  1  1  0  0  0
  1  6  1  0  0  0
  1  2  1  0  0  0
  2  3  1  0  0  0
  3  4  2  0  0  0
  3  5  1  0  0  0
  5  7  1  0  0  0
  5  6  1  0  0  0
  7 12  1  0  0  0
  7  8  2  0  0  0
  8  9  1  0  0  0
  9 10  2  0  0  0
 10 13  1  0  0  0
 10 11  1  0  0  0
 13 14  1  0  0  0
 13 15  2  0  0  0
 11 12  2  0  0  0
 12 16  1  0  0  0
 16 17  1  0  0  0
 18 21  1  0  0  0
M  CHG 1  13   1
M  CHG 1  14  -1
M  CHG 1  28   1
M  CHG 1  29  -1
M  END
> <minimizedAffinity>
-7.73011

$$$$
ZINC000079440099


 21 22  0  0  0  0  0  0  0  0999 V2000
   -8.5195   17.7879   -8.5663 N   0  0  0  0  0  0  0  0  0  0  0  0
   -7.4133   17.1501   -8.9974 C   0  0  0  0  0  0  0  0  0  0  0  0
   -6.3424   17.3615   -8.4624 O   0  0  0  0  0  0  0  0  0  0  0  0
   -9.5458   19.8235   -9.5866 H   0  0  0  0  0  0  0  0  0  0  0  0
   -8.9449   20.5919   -8.9662 N   0  0  0  0  0  0  0  0  0  0  0  0
   -9.3545   19.9262   -7.7224 C   0  0  0  0  0  0  0  0  0  0  0  0
   -9.2625   20.9165   -6.5598 C   0  0  0  0  0  0  0  0  0  0  0  0
   -9.6892   20.2231   -5.2643 C   0  0  0  0  0  0  0  0  0  0  0  0
   -8.7661   19.0331   -4.9949 C   0  0  0  0  0  0  0  0  0  0  0  0
   -8.8581   18.0428   -6.1576 C   0  0  0  0  0  0  0  0  0  0  0  0
   -8.4315   18.7361   -7.4530 C   0  0  0  0  0  0  0  0  0  0  0  0
   -9.0077   19.9428   -9.7308 H   0  0  0  0  0  0  0  0  0  0  0  0
   -9.0077   19.9428   -9.7308 H   0  0  0  0  0  0  0  0  0  0  0  0
   -9.0077   19.9428   -9.7308 H   0  0  0  0  0  0  0  0  0  0  0  0
   -7.5022   16.1937  -10.1201 C   0  0  0  0  0  0  0  0  0  0  0  0
   -7.9455   14.8834   -9.9058 C   0  0  0  0  0  0  0  0  0  0  0  0
   -8.0109   14.0271  -10.9910 C   0  0  0  0  0  0  0  0  0  0  0  0
   -7.6401   14.4878  -12.2413 C   0  0  0  0  0  0  0  0  0  0  0  0
   -7.2254   15.7282  -12.4153 N   0  0  0  0  0  0  0  0  0  0  0  0
   -7.1507   16.5836  -11.4154 C   0  0  0  0  0  0  0  0  0  0  0  0
   -6.5971   18.2029  -11.7068 Cl  0  0  0  0  0  0  0  0  0  0  0  0
  5  6  1  0  0  0
  6 11  1  0  0  0
  6  7  1  0  0  0
  7  8  1  0  0  0
  8  9  1  0  0  0
  9 10  1  0  0  0
 10 11  1  0  0  0
 11  1  1  0  0  0
  1  2  1  0  0  0
  2  3  2  0  0  0
  2 15  1  0  0  0
 15 20  1  0  0  0
 15 16  2  0  0  0
 16 17  1  0  0  0
 17 18  2  0  0  0
 18 19  1  0  0  0
 19 20  2  0  0  0
 20 21  1  0  0  0
  5 12  1  0  0  0
  5 13  1  0  0  0
  5 14  1  0  0  0
  1  4  1  0  0  0
M  CHG 1   5   1
M  END
> <minimizedAffinity>
-6.57641

$$$$
ZINC000071850384


 23 26  0  0  0  0  0  0  0  0999 V2000
   -5.9620   17.2222  -11.0614 C   0  0  0  0  0  0  0  0  0  0  0  0
   -6.7715   17.2132   -8.5840 C   0  0  0  0  0  0  0  0  0  0  0  0
   -7.6620   18.0059   -7.8398 C   0  0  0  0  0  0  0  0  0  0  0  0
   -8.0671   17.9668   -6.4970 C   0  0  0  0  0  0  0  0  0  0  0  0
   -8.9668   18.8852   -6.0442 C   0  0  0  0  0  0  0  0  0  0  0  0
   -9.4713   19.8523   -6.9277 C   0  0  0  0  0  0  0  0  0  0  0  0
   -9.0710   19.8750   -8.2163 C   0  0  0  0  0  0  0  0  0  0  0  0
   -8.1684   18.9599   -8.6845 N   0  0  0  0  0  0  0  0  0  0  0  0
   -7.6202   18.7828   -9.9260 C   0  0  0  0  0  0  0  0  0  0  0  0
   -6.7681   17.7409   -9.8986 C   0  0  0  0  0  0  0  0  0  0  0  0
   -5.4111   15.2108   -7.7273 N   0  0  0  0  0  0  0  0  0  0  0  0
   -6.0129   16.0967   -8.1062 C   0  0  0  0  0  0  0  0  0  0  0  0
   -6.8173   17.1421  -12.2531 N   0  0  0  0  0  0  0  0  0  0  0  0
   -8.3690   18.0818   -9.1958 H   0  0  0  0  0  0  0  0  0  0  0  0
   -6.2891   18.0320  -13.2957 C   0  0  0  0  0  0  0  0  0  0  0  0
   -7.0277   18.0674  -14.6351 C   0  0  0  0  0  0  0  0  0  0  0  0
   -7.1292   19.2535  -13.6741 C   0  0  0  0  0  0  0  0  0  0  0  0
   -6.8347   15.7603  -12.7515 C   0  0  0  0  0  0  0  0  0  0  0  0
   -7.6711   14.8896  -11.8117 C   0  0  0  0  0  0  0  0  0  0  0  0
   -6.7926   13.7905  -11.1661 C   0  0  0  0  0  0  0  0  0  0  0  0
   -7.7346   12.5602  -11.2004 C   0  0  0  0  0  0  0  0  0  0  0  0
   -8.4360   12.7078  -12.4537 O   0  0  0  0  0  0  0  0  0  0  0  0
   -8.7363   14.1085  -12.6053 C   0  0  0  0  0  0  0  0  0  0  0  0
 11 12  3  0  0  0
 12  2  1  0  0  0
  2 10  1  0  0  0
  2  3  2  0  0  0
  3  8  1  0  0  0
  3  4  1  0  0  0
  4  5  2  0  0  0
  5  6  1  0  0  0
  6  7  2  0  0  0
  7  8  1  0  0  0
  8  9  1  0  0  0
  9 10  2  0  0  0
 10  1  1  0  0  0
  1 13  1  0  0  0
 13 18  1  0  0  0
 13 15  1  0  0  0
 18 19  1  0  0  0
 19 23  1  0  0  0
 19 20  1  0  0  0
 20 21  1  0  0  0
 21 22  1  0  0  0
 22 23  1  0  0  0
 15 17  1  0  0  0
 15 16  1  0  0  0
 16 17  1  0  0  0
 13 14  1  0  0  0
M  CHG 1  13   1
M  END
> <minimizedAffinity>
-6.90068

$$$$
ZINC000084668201


 24 26  0  0  0  0  0  0  0  0999 V2000
   -7.4623   16.9256   -8.3066 N   0  0  0  0  0  0  0  0  0  0  0  0
   -7.9022   18.1616   -8.6153 C   0  0  0  0  0  0  0  0  0  0  0  0
   -7.4913   18.7217   -9.6132 O   0  0  0  0  0  0  0  0  0  0  0  0
   -8.7978   18.7769   -7.8177 N   0  0  0  0  0  0  0  0  0  0  0  0
   -9.2127   18.1660   -6.5475 C   0  0  0  0  0  0  0  0  0  0  0  0
   -9.0033   19.1820   -5.4202 C   0  0  0  0  0  0  0  0  0  0  0  0
   -9.7397   20.4788   -5.7643 C   0  0  0  0  0  0  0  0  0  0  0  0
   -9.1663   21.0657   -7.0561 C   0  0  0  0  0  0  0  0  0  0  0  0
   -9.3729   20.0740   -8.1990 C   0  0  0  0  0  0  0  0  0  0  0  0
   -4.6799   14.6094  -10.6376 H   0  0  0  0  0  0  0  0  0  0  0  0
   -6.0536   14.2588   -9.8598 C   0  0  0  0  0  0  0  0  0  0  0  0
   -6.3927   12.7869   -9.6154 C   0  0  0  0  0  0  0  0  0  0  0  0
   -5.8021   15.0572   -8.5699 C   0  0  0  0  0  0  0  0  0  0  0  0
   -6.5741   16.2129   -9.2282 C   0  0  0  0  0  0  0  0  0  0  0  0
   -7.2894   15.1479  -10.0761 C   0  0  0  0  0  0  0  0  0  0  0  0
   -7.4980   15.5634  -11.5337 C   0  0  0  0  0  0  0  0  0  0  0  0
   -8.5609   14.5990   -9.4256 C   0  0  0  0  0  0  0  0  0  0  0  0
   -4.6995   13.2424  -11.5565 C   0  0  0  0  0  0  0  0  0  0  0  0
   -5.0393   14.4374  -10.8505 O   0  0  0  0  0  0  0  0  0  0  0  0
   -9.5690   21.4412   -4.6731 N   0  0  0  0  0  0  0  0  0  0  0  0
   -9.5812   22.8055   -4.7839 C   0  0  0  0  0  0  0  0  0  0  0  0
   -9.3904   23.2988   -3.5454 C   0  0  0  0  0  0  0  0  0  0  0  0
   -9.2651   22.2639   -2.7014 N   0  0  0  0  0  0  0  0  0  0  0  0
   -9.3760   21.1481   -3.3690 C   0  0  0  0  0  0  0  0  0  0  0  0
 18 19  1  0  0  0
 11 19  1  0  0  0
 11 15  1  0  0  0
 11 12  1  0  0  0
 11 13  1  0  0  0
 13 14  1  0  0  0
 14  1  1  0  0  0
 14 15  1  0  0  0
  1  2  1  0  0  0
  2  3  2  0  0  0
  2  4  1  0  0  0
  4  9  1  0  0  0
  4  5  1  0  0  0
  5  6  1  0  0  0
  6  7  1  0  0  0
  7 20  1  0  0  0
  7  8  1  0  0  0
 20 24  1  0  0  0
 20 21  1  0  0  0
 21 22  2  0  0  0
 22 23  1  0  0  0
 23 24  2  0  0  0
  8  9  1  0  0  0
 15 16  1  0  0  0
 15 17  1  0  0  0
  1 10  1  0  0  0
M  END
> <minimizedAffinity>
-6.64077

$$$$
ZINC000025151819


 26 27  0  0  0  0  0  0  0  0999 V2000
   -7.5061   16.5606  -10.3704 N   0  0  0  0  0  0  0  0  0  0  0  0
   -6.9432   23.5013   -8.0421 H   0  0  0  0  0  0  0  0  0  0  0  0
   -7.0666   15.2909  -10.6046 C   0  0  0  0  0  0  0  0  0  0  0  0
   -6.2897   15.0059  -11.7324 C   0  0  0  0  0  0  0  0  0  0  0  0
   -5.8543   13.6687  -11.9349 C   0  0  0  0  0  0  0  0  0  0  0  0
   -5.1762   13.3824  -12.9049 O   0  0  0  0  0  0  0  0  0  0  0  0
   -6.1995   12.7208  -11.0413 N   0  0  0  0  0  0  0  0  0  0  0  0
   -5.7538   11.3400  -11.2441 C   0  0  0  0  0  0  0  0  0  0  0  0
   -6.9468   13.0250   -9.9665 C   0  0  0  0  0  0  0  0  0  0  0  0
   -7.2394   12.1455   -9.1800 O   0  0  0  0  0  0  0  0  0  0  0  0
   -7.3745   14.2786   -9.7367 N   0  0  0  0  0  0  0  0  0  0  0  0
   -8.1871   14.5618   -8.5511 C   0  0  0  0  0  0  0  0  0  0  0  0
   -5.9410   16.0384  -12.6615 C   0  0  0  0  0  0  0  0  0  0  0  0
   -5.6643   16.8574  -13.3984 N   0  0  0  0  0  0  0  0  0  0  0  0
   -6.6398   17.5201   -9.6811 C   0  0  0  0  0  0  0  0  0  0  0  0
   -7.3647   18.0695   -8.4509 C   0  0  0  0  0  0  0  0  0  0  0  0
   -8.6518   18.7716   -8.8885 C   0  0  0  0  0  0  0  0  0  0  0  0
   -8.6928   18.9804   -3.9945 C   0  0  0  0  0  0  0  0  0  0  0  0
   -9.3691   19.4801   -5.2728 C   0  0  0  0  0  0  0  0  0  0  0  0
   -8.6891   18.8496   -6.4908 C   0  0  0  0  0  0  0  0  0  0  0  0
   -9.3023   19.3757   -7.7181 N   0  0  0  0  0  0  0  0  0  0  0  0
   -9.1335   20.8347   -7.7621 C   0  0  0  0  0  0  0  0  0  0  0  0
   -9.8125   21.4615   -6.5418 C   0  0  0  0  0  0  0  0  0  0  0  0
   -9.5879   22.9748   -6.5534 C   0  0  0  0  0  0  0  0  0  0  0  0
   -9.2514   20.9035   -5.3503 O   0  0  0  0  0  0  0  0  0  0  0  0
   -9.3998   19.4212   -5.2673 H   0  0  0  0  0  0  0  0  0  0  0  0
 18 19  1  0  0  0
 19 25  1  0  0  0
 19 20  1  0  0  0
 20 21  1  0  0  0
 21 17  1  0  0  0
 21 22  1  0  0  0
 17 16  1  0  0  0
 16 15  1  0  0  0
 15  1  1  0  0  0
  1  3  1  0  0  0
  3 11  1  0  0  0
  3  4  2  0  0  0
  4 13  1  0  0  0
  4  5  1  0  0  0
 13 14  3  0  0  0
  5  6  2  0  0  0
  5  7  1  0  0  0
  7  8  1  0  0  0
  7  9  1  0  0  0
  9 10  2  0  0  0
  9 11  1  0  0  0
 11 12  1  0  0  0
 22 23  1  0  0  0
 23 24  1  0  0  0
 23 25  1  0  0  0
 21 26  1  0  0  0
  1  2  1  0  0  0
M  CHG 1  21   1
M  END
> <minimizedAffinity>
-7.32266

$$$$
ZINC000249583581


 23 24  0  0  0  0  0  0  0  0999 V2000
   -7.0564   14.3341  -10.2032 N   0  0  0  0  0  0  0  0  0  0  0  0
   -6.7828   12.8923  -10.1369 C   0  0  0  0  0  0  0  0  0  0  0  0
   -9.0863   14.5005   -3.1705 H   0  0  0  0  0  0  0  0  0  0  0  0
   -6.5374   14.8733  -11.4673 C   0  0  0  0  0  0  0  0  0  0  0  0
   -5.0511   15.2547  -11.3084 C   0  0  0  0  0  0  0  0  0  0  0  0
   -4.8970   16.5431  -12.1543 C   0  0  0  0  0  0  0  0  0  0  0  0
   -6.2285   17.2882  -11.8877 C   0  0  0  0  0  0  0  0  0  0  0  0
   -6.5337   18.2632  -13.0266 C   0  0  0  0  0  0  0  0  0  0  0  0
   -7.2860   16.1663  -11.8356 C   0  0  0  0  0  0  0  0  0  0  0  0
   -6.6977   13.8389  -12.5831 C   0  0  0  0  0  0  0  0  0  0  0  0
   -5.4323   13.6107  -13.2065 O   0  0  0  0  0  0  0  0  0  0  0  0
  -13.0270   19.0524   -7.4807 H   0  0  0  0  0  0  0  0  0  0  0  0
   -8.5060   14.5611  -10.1326 C   0  0  0  0  0  0  0  0  0  0  0  0
   -9.3779   15.9769   -6.9507 C   0  0  0  0  0  0  0  0  0  0  0  0
   -9.4228   14.6994   -6.7168 N   0  0  0  0  0  0  0  0  0  0  0  0
   -9.1451   14.0787   -7.7212 O   0  0  0  0  0  0  0  0  0  0  0  0
   -8.8890   14.9268   -8.7217 C   0  0  0  0  0  0  0  0  0  0  0  0
   -9.0395   16.1381   -8.2423 N   0  0  0  0  0  0  0  0  0  0  0  0
   -9.6597   17.0757   -5.9587 C   0  0  0  0  0  0  0  0  0  0  0  0
   -9.2798   18.4254   -6.5708 C   0  0  0  0  0  0  0  0  0  0  0  0
  -11.0506   17.0760   -5.6306 O   0  0  0  0  0  0  0  0  0  0  0  0
  -10.5763   16.3013   -3.3910 C   0  0  0  0  0  0  0  0  0  0  0  0
  -11.3221   17.3246   -4.2498 C   0  0  0  0  0  0  0  0  0  0  0  0
 22 23  1  0  0  0
 23 21  1  0  0  0
 21 19  1  0  0  0
 19 20  1  0  0  0
 19 14  1  0  0  0
 14 18  1  0  0  0
 14 15  2  0  0  0
 15 16  1  0  0  0
 16 17  1  0  0  0
 17 13  1  0  0  0
 17 18  2  0  0  0
 13  1  1  0  0  0
  1  2  1  0  0  0
  1  4  1  0  0  0
  4  9  1  0  0  0
  4 10  1  0  0  0
  4  5  1  0  0  0
 10 11  1  0  0  0
  5  6  1  0  0  0
  6  7  1  0  0  0
  7  8  1  0  0  0
  7  9  1  0  0  0
  1  3  1  0  0  0
 11 12  1  0  0  0
M  CHG 1   1   1
M  END
> <minimizedAffinity>
-7.13102

$$$$
ZINC000045939471


 25 26  0  0  0  0  0  0  0  0999 V2000
   -6.8265   15.2522   -7.0777 S   0  0  0  0  0  0  0  0  0  0  0  0
   -5.7216   15.8060   -7.7789 O   0  0  0  0  0  0  0  0  0  0  0  0
   -6.6906   14.5168   -5.8694 O   0  0  0  0  0  0  0  0  0  0  0  0
   -9.1927   15.0721   -5.2015 C   0  0  0  0  0  0  0  0  0  0  0  0
   -8.9730   16.4128   -5.8537 C   0  0  0  0  0  0  0  0  0  0  0  0
   -9.8262   17.4642   -5.5768 C   0  0  0  0  0  0  0  0  0  0  0  0
   -9.6243   18.6943   -6.1748 C   0  0  0  0  0  0  0  0  0  0  0  0
   -8.5694   18.8724   -7.0498 C   0  0  0  0  0  0  0  0  0  0  0  0
   -7.7158   17.8207   -7.3269 C   0  0  0  0  0  0  0  0  0  0  0  0
   -7.9143   16.5925   -6.7247 C   0  0  0  0  0  0  0  0  0  0  0  0
  -10.9560   17.2733   -4.6397 N   0  0  0  0  0  0  0  0  0  0  0  0
  -10.7961   17.4612   -3.4469 O   0  0  0  0  0  0  0  0  0  0  0  0
  -12.0453   16.9284   -5.0612 O   0  0  0  0  0  0  0  0  0  0  0  0
   -7.6066   14.2561   -8.1462 N   0  0  0  0  0  0  0  0  0  0  0  0
   -7.3018   16.5066   -7.1139 H   0  0  0  0  0  0  0  0  0  0  0  0
   -8.2800   14.8221   -9.3176 C   0  0  0  0  0  0  0  0  0  0  0  0
   -7.4626   14.5147  -10.5739 C   0  0  0  0  0  0  0  0  0  0  0  0
   -6.5487   13.3169  -10.3072 C   0  0  0  0  0  0  0  0  0  0  0  0
   -8.4090   14.1865  -11.7305 C   0  0  0  0  0  0  0  0  0  0  0  0
   -6.6467   15.6845  -10.9256 N   0  0  0  0  0  0  0  0  0  0  0  0
   -7.4295   16.9225  -10.8221 C   0  0  0  0  0  0  0  0  0  0  0  0
   -6.5143   18.1272  -11.0526 C   0  0  0  0  0  0  0  0  0  0  0  0
   -5.8764   18.0192  -12.4405 C   0  0  0  0  0  0  0  0  0  0  0  0
   -5.1072   16.6989  -12.5386 C   0  0  0  0  0  0  0  0  0  0  0  0
   -6.0632   15.5357  -12.2651 C   0  0  0  0  0  0  0  0  0  0  0  0
  4  5  1  0  0  0
  5 10  2  0  0  0
  5  6  1  0  0  0
  6 11  1  0  0  0
  6  7  2  0  0  0
 11 12  1  0  0  0
 11 13  2  0  0  0
  7  8  1  0  0  0
  8  9  2  0  0  0
  9 10  1  0  0  0
 10  1  1  0  0  0
  1  2  2  0  0  0
  1  3  2  0  0  0
  1 14  1  0  0  0
 14 16  1  0  0  0
 16 17  1  0  0  0
 17 18  1  0  0  0
 17 19  1  0  0  0
 17 20  1  0  0  0
 20 25  1  0  0  0
 20 21  1  0  0  0
 21 22  1  0  0  0
 22 23  1  0  0  0
 23 24  1  0  0  0
 24 25  1  0  0  0
 14 15  1  0  0  0
M  CHG 1  11   1
M  CHG 1  12  -1
M  END
> <minimizedAffinity>
-7.34832

$$$$
ZINC000218391629


 28 29  0  0  0  0  0  0  0  0999 V2000
   -7.2892   15.6891   -6.8477 N   0  0  0  0  0  0  0  0  0  0  0  0
   -8.5610   15.4685   -7.2352 C   0  0  0  0  0  0  0  0  0  0  0  0
   -8.9195   14.3478   -7.5291 O   0  0  0  0  0  0  0  0  0  0  0  0
   -1.4640   12.4491   -9.0808 H   0  0  0  0  0  0  0  0  0  0  0  0
   -6.3398   14.5753   -6.7817 C   0  0  0  0  0  0  0  0  0  0  0  0
   -5.2802   14.7431   -7.8725 C   0  0  0  0  0  0  0  0  0  0  0  0
   -6.1487   13.6236  -11.2464 C   0  0  0  0  0  0  0  0  0  0  0  0
   -6.4166   12.3657  -10.7900 C   0  0  0  0  0  0  0  0  0  0  0  0
   -6.1466   12.3257   -9.1026 S   0  0  0  0  0  0  0  0  0  0  0  0
   -5.6956   13.9724   -9.0991 C   0  0  0  0  0  0  0  0  0  0  0  0
   -5.7528   14.4640  -10.2850 N   0  0  0  0  0  0  0  0  0  0  0  0
   -7.1631   14.7851  -12.9994 O   0  0  0  0  0  0  0  0  0  0  0  0
   -6.2767   14.0139  -12.6560 C   0  0  0  0  0  0  0  0  0  0  0  0
   -5.4943   13.5720  -13.4869 O   0  0  0  0  0  0  0  0  0  0  0  0
   -7.1595   14.7841  -12.9960 H   0  0  0  0  0  0  0  0  0  0  0  0
   -9.5377   16.6142   -7.3030 C   0  0  0  0  0  0  0  0  0  0  0  0
   -8.7711   17.9297   -7.4535 C   0  0  0  0  0  0  0  0  0  0  0  0
   -8.6765   18.2802   -8.8728 N   0  0  0  0  0  0  0  0  0  0  0  0
   -7.4721   18.3313   -9.4755 C   0  0  0  0  0  0  0  0  0  0  0  0
   -6.4642   18.0867   -8.8413 O   0  0  0  0  0  0  0  0  0  0  0  0
  -13.1273   19.2015    1.6830 H   0  0  0  0  0  0  0  0  0  0  0  0
   -7.3766   18.6849  -10.9066 C   0  0  0  0  0  0  0  0  0  0  0  0
   -6.5230   17.9699  -11.7495 C   0  0  0  0  0  0  0  0  0  0  0  0
   -6.4376   18.3039  -13.0840 C   0  0  0  0  0  0  0  0  0  0  0  0
   -7.1969   19.3480  -13.5899 C   0  0  0  0  0  0  0  0  0  0  0  0
   -7.1095   19.6713  -14.8987 F   0  0  0  0  0  0  0  0  0  0  0  0
   -8.0460   20.0611  -12.7574 C   0  0  0  0  0  0  0  0  0  0  0  0
   -8.1438   19.7314  -11.4226 C   0  0  0  0  0  0  0  0  0  0  0  0
 12 13  2  0  0  0
 13 14  1  0  0  0
 13  7  1  0  0  0
  7 11  1  0  0  0
  7  8  2  0  0  0
  8  9  1  0  0  0
  9 10  1  0  0  0
 10  6  1  0  0  0
 10 11  2  0  0  0
  6  5  1  0  0  0
  5  1  1  0  0  0
  1  2  1  0  0  0
  2  3  2  0  0  0
  2 16  1  0  0  0
 16 17  1  0  0  0
 17 18  1  0  0  0
 18 19  1  0  0  0
 19 20  2  0  0  0
 19 22  1  0  0  0
 22 28  1  0  0  0
 22 23  2  0  0  0
 23 24  1  0  0  0
 24 25  2  0  0  0
 25 26  1  0  0  0
 25 27  1  0  0  0
 27 28  2  0  0  0
 14 15  1  0  0  0
  1  4  1  0  0  0
 18 21  1  0  0  0
M  END
> <minimizedAffinity>
-7.90082

$$$$
ZINC000225245534


 24 25  0  0  0  0  0  0  0  0999 V2000
   -7.0622   12.9123   -9.2893 N   0  0  0  0  0  0  0  0  0  0  0  0
   -7.5364   14.1148   -9.4536 C   0  0  0  0  0  0  0  0  0  0  0  0
   -6.8584   12.5888   -8.3977 H   0  0  0  0  0  0  0  0  0  0  0  0
   -7.8277   14.8943   -8.3590 N   0  0  0  0  0  0  0  0  0  0  0  0
   -6.7541   15.4695   -7.5346 C   0  0  0  0  0  0  0  0  0  0  0  0
   -7.0128   16.9717   -7.3775 C   0  0  0  0  0  0  0  0  0  0  0  0
   -8.3720   17.1800   -6.8608 N   0  0  0  0  0  0  0  0  0  0  0  0
   -9.3828   16.6888   -7.8069 C   0  0  0  0  0  0  0  0  0  0  0  0
   -9.2212   15.1800   -7.9851 C   0  0  0  0  0  0  0  0  0  0  0  0
   -8.6000   18.5937   -6.5336 C   0  0  0  0  0  0  0  0  0  0  0  0
   -9.0126   19.3497   -7.7982 C   0  0  0  0  0  0  0  0  0  0  0  0
   -9.2548   20.7207   -7.4759 O   0  0  0  0  0  0  0  0  0  0  0  0
  -12.9748   17.2406   -2.9339 H   0  0  0  0  0  0  0  0  0  0  0  0
   -7.7459   14.6050  -10.7236 N   0  0  0  0  0  0  0  0  0  0  0  0
   -6.9389   13.6943   -9.8537 H   0  0  0  0  0  0  0  0  0  0  0  0
   -7.0187   15.7043  -11.1745 C   0  0  0  0  0  0  0  0  0  0  0  0
   -7.4538   16.9280  -10.9189 N   0  0  0  0  0  0  0  0  0  0  0  0
   -6.7952   17.9960  -11.3273 C   0  0  0  0  0  0  0  0  0  0  0  0
   -5.6204   17.8730  -12.0417 C   0  0  0  0  0  0  0  0  0  0  0  0
   -5.1298   16.6066  -12.3308 C   0  0  0  0  0  0  0  0  0  0  0  0
   -5.8393   15.5061  -11.8843 C   0  0  0  0  0  0  0  0  0  0  0  0
   -5.3558   14.1361  -12.1682 N   0  0  0  0  0  0  0  0  0  0  0  0
   -5.6222   13.6044  -13.2311 O   0  0  0  0  0  0  0  0  0  0  0  0
   -4.6916   13.5407  -11.3389 O   0  0  0  0  0  0  0  0  0  0  0  0
  1  2  2  0  0  0
  1  3  1  0  0  0
  2 14  1  0  0  0
  2  4  1  0  0  0
 14 16  1  0  0  0
 16 21  1  0  0  0
 16 17  2  0  0  0
 17 18  1  0  0  0
 18 19  2  0  0  0
 19 20  1  0  0  0
 20 21  2  0  0  0
 21 22  1  0  0  0
 22 23  1  0  0  0
 22 24  2  0  0  0
  4  9  1  0  0  0
  4  5  1  0  0  0
  5  6  1  0  0  0
  6  7  1  0  0  0
  7 10  1  0  0  0
  7  8  1  0  0  0
 10 11  1  0  0  0
 11 12  1  0  0  0
  8  9  1  0  0  0
 14 15  1  0  0  0
 12 13  1  0  0  0
M  CHG 1  22   1
M  CHG 1  23  -1
M  END
> <minimizedAffinity>
-6.68296

$$$$
ZINC000091459668


 28 32  0  0  0  0  0  0  0  0999 V2000
   -9.9245   16.3640   -7.8200 O   0  0  0  0  0  0  0  0  0  0  0  0
   -8.9038   16.9214   -8.1713 C   0  0  0  0  0  0  0  0  0  0  0  0
   -7.7884   16.2013   -8.4038 N   0  0  0  0  0  0  0  0  0  0  0  0
   -7.7868   14.7142   -8.3534 C   0  0  0  0  0  0  0  0  0  0  0  0
   -7.6499   14.2433   -9.8025 C   0  0  0  0  0  0  0  0  0  0  0  0
   -8.1604   15.3396  -10.7332 C   0  0  0  0  0  0  0  0  0  0  0  0
   -7.0526   16.3193  -11.1054 C   0  0  0  0  0  0  0  0  0  0  0  0
   -5.9627   16.3195  -10.0270 C   0  0  0  0  0  0  0  0  0  0  0  0
   -5.3323   14.9633   -9.9556 C   0  0  0  0  0  0  0  0  0  0  0  0
   -6.2765   13.8821  -10.1211 N   0  0  0  0  0  0  0  0  0  0  0  0
   -6.5194   16.8319   -8.7242 C   0  0  0  0  0  0  0  0  0  0  0  0
   -9.8393   16.2991   -7.7200 H   0  0  0  0  0  0  0  0  0  0  0  0
   -8.8834   18.3950   -8.3384 C   0  0  0  0  0  0  0  0  0  0  0  0
   -8.6487   18.9555   -9.5611 C   0  0  0  0  0  0  0  0  0  0  0  0
   -8.6354   20.4106   -9.6941 C   0  0  0  0  0  0  0  0  0  0  0  0
   -8.4264   20.9115  -10.7847 O   0  0  0  0  0  0  0  0  0  0  0  0
   -8.8507   21.2049   -8.6310 N   0  0  0  0  0  0  0  0  0  0  0  0
   -9.0913   20.6784   -7.3800 C   0  0  0  0  0  0  0  0  0  0  0  0
   -9.3125   21.5185   -6.2917 C   0  0  0  0  0  0  0  0  0  0  0  0
   -9.5522   20.9788   -5.0468 C   0  0  0  0  0  0  0  0  0  0  0  0
   -9.5756   19.6028   -4.8651 C   0  0  0  0  0  0  0  0  0  0  0  0
   -9.3612   18.7598   -5.9187 C   0  0  0  0  0  0  0  0  0  0  0  0
   -9.1217   19.2850   -7.1918 C   0  0  0  0  0  0  0  0  0  0  0  0
   -9.9107   16.2659   -8.0213 H   0  0  0  0  0  0  0  0  0  0  0  0
   -5.8848   12.7748   -9.2388 C   0  0  0  0  0  0  0  0  0  0  0  0
   -6.1606   11.4426   -9.9389 C   0  0  0  0  0  0  0  0  0  0  0  0
   -6.7137   11.4949  -11.3645 C   0  0  0  0  0  0  0  0  0  0  0  0
   -5.2650   11.0670  -11.1211 C   0  0  0  0  0  0  0  0  0  0  0  0
  1  2  2  0  0  0
  2 13  1  0  0  0
  2  3  1  0  0  0
 13 23  1  0  0  0
 13 14  2  0  0  0
 14 15  1  0  0  0
 15 16  2  0  0  0
 15 17  1  0  0  0
 17 18  1  0  0  0
 18 23  2  0  0  0
 18 19  1  0  0  0
 19 20  2  0  0  0
 20 21  1  0  0  0
 21 22  2  0  0  0
 22 23  1  0  0  0
  3 11  1  0  0  0
  3  4  1  0  0  0
  4  5  1  0  0  0
  5 10  1  0  0  0
  5  6  1  0  0  0
  6  7  1  0  0  0
  7  8  1  0  0  0
  8  9  1  0  0  0
  8 11  1  0  0  0
  9 10  1  0  0  0
 10 25  1  0  0  0
 25 26  1  0  0  0
 26 28  1  0  0  0
 26 27  1  0  0  0
 27 28  1  0  0  0
 17 24  1  0  0  0
 10 12  1  0  0  0
M  CHG 1  10   1
M  END
> <minimizedAffinity>
-8.24793

$$$$
ZINC000217787572


 25 26  0  0  0  0  0  0  0  0999 V2000
   -6.9304   12.3807   -9.7943 N   0  0  0  0  0  0  0  0  0  0  0  0
   -7.4819   13.6076   -9.7108 C   0  0  0  0  0  0  0  0  0  0  0  0
   -7.8713   14.1688  -10.7167 O   0  0  0  0  0  0  0  0  0  0  0  0
   -7.6018   14.2124   -8.5123 N   0  0  0  0  0  0  0  0  0  0  0  0
   -6.4909    8.7131  -12.5775 H   0  0  0  0  0  0  0  0  0  0  0  0
   -6.4909    8.7131  -12.5775 H   0  0  0  0  0  0  0  0  0  0  0  0
   -6.8001   11.7233  -11.0970 C   0  0  0  0  0  0  0  0  0  0  0  0
   -5.4112   11.0920  -11.2131 C   0  0  0  0  0  0  0  0  0  0  0  0
   -5.5264    9.7906  -11.7919 O   0  0  0  0  0  0  0  0  0  0  0  0
   -4.1383   11.5292  -13.1527 H   0  0  0  0  0  0  0  0  0  0  0  0
   -3.4740   11.5265  -12.4989 O   0  0  0  0  0  0  0  0  0  0  0  0
   -4.5386   11.9551  -12.0874 C   0  0  0  0  0  0  0  0  0  0  0  0
   -4.8995   13.0804  -12.3874 O   0  0  0  0  0  0  0  0  0  0  0  0
   -3.4788   11.5254  -12.4982 H   0  0  0  0  0  0  0  0  0  0  0  0
   -8.2014   15.5460   -8.4216 C   0  0  0  0  0  0  0  0  0  0  0  0
   -7.1560   16.5417   -7.9149 C   0  0  0  0  0  0  0  0  0  0  0  0
   -7.8288   17.9044   -7.6808 C   0  0  0  0  0  0  0  0  0  0  0  0
   -8.2568   18.4080   -8.9771 N   0  0  0  0  0  0  0  0  0  0  0  0
   -8.9461   19.6970   -8.9891 C   0  0  0  0  0  0  0  0  0  0  0  0
   -8.6112   20.3406  -10.3580 C   0  0  0  0  0  0  0  0  0  0  0  0
   -7.6065   19.3604  -11.0268 C   0  0  0  0  0  0  0  0  0  0  0  0
   -7.0379   18.6301   -9.8033 C   0  0  0  0  0  0  0  0  0  0  0  0
   -6.4636   17.2538  -10.1081 C   0  0  0  0  0  0  0  0  0  0  0  0
   -6.1063   16.6477   -8.8750 O   0  0  0  0  0  0  0  0  0  0  0  0
   -8.8150    7.4497   -9.4004 H   0  0  0  0  0  0  0  0  0  0  0  0
 11 12  2  0  0  0
 12 13  1  0  0  0
 12  8  1  0  0  0
  8  9  1  0  0  0
  8  7  1  0  0  0
  7  1  1  0  0  0
  1  2  1  0  0  0
  2  3  2  0  0  0
  2  4  1  0  0  0
  4 15  1  0  0  0
 15 16  1  0  0  0
 16 24  1  0  0  0
 16 17  1  0  0  0
 17 18  1  0  0  0
 18 22  1  0  0  0
 18 19  1  0  0  0
 19 20  1  0  0  0
 20 21  1  0  0  0
 21 22  1  0  0  0
 22 23  1  0  0  0
 23 24  1  0  0  0
 13 14  1  0  0  0
  9 10  1  0  0  0
  1  5  1  0  0  0
  4  6  1  0  0  0
 18 25  1  0  0  0
M  CHG 1  18   1
M  END
> <minimizedAffinity>
-6.48365

$$$$
ZINC000097371906


 24 26  0  0  0  0  0  0  0  0999 V2000
   -6.1843   14.7091   -7.5271 C   0  0  0  0  0  0  0  0  0  0  0  0
   -5.9802   14.0986   -6.2513 O   0  0  0  0  0  0  0  0  0  0  0  0
   -4.6064    9.0750   -9.4564 H   0  0  0  0  0  0  0  0  0  0  0  0
   -4.9844   14.4168   -8.4301 C   0  0  0  0  0  0  0  0  0  0  0  0
   -5.4277   13.7369   -9.6063 O   0  0  0  0  0  0  0  0  0  0  0  0
   -7.1332   14.4253  -11.1155 C   0  0  0  0  0  0  0  0  0  0  0  0
   -7.5381   15.2104  -12.1773 C   0  0  0  0  0  0  0  0  0  0  0  0
   -6.6427   16.0742  -12.7810 C   0  0  0  0  0  0  0  0  0  0  0  0
   -5.3406   16.1543  -12.3239 C   0  0  0  0  0  0  0  0  0  0  0  0
   -4.9306   15.3709  -11.2620 C   0  0  0  0  0  0  0  0  0  0  0  0
   -5.8285   14.5082  -10.6508 C   0  0  0  0  0  0  0  0  0  0  0  0
   -8.0442   12.3077  -10.7119 O   0  0  0  0  0  0  0  0  0  0  0  0
   -8.0919   13.5006  -10.4702 N   0  0  0  0  0  0  0  0  0  0  0  0
   -8.9253   13.9318   -9.6936 O   0  0  0  0  0  0  0  0  0  0  0  0
   -6.3334   16.2216   -7.3507 C   0  0  0  0  0  0  0  0  0  0  0  0
   -7.4148   16.7111   -8.2161 N   0  0  0  0  0  0  0  0  0  0  0  0
   -6.8704   17.5941   -9.2791 C   0  0  0  0  0  0  0  0  0  0  0  0
   -8.0728   18.4496   -9.7305 C   0  0  0  0  0  0  0  0  0  0  0  0
   -7.6020   19.9036   -9.9329 C   0  0  0  0  0  0  0  0  0  0  0  0
   -8.7142   20.7606   -9.2801 C   0  0  0  0  0  0  0  0  0  0  0  0
   -9.0981   19.9285   -8.0319 C   0  0  0  0  0  0  0  0  0  0  0  0
   -9.0415   18.4458   -8.5218 C   0  0  0  0  0  0  0  0  0  0  0  0
   -8.3383   17.5860   -7.4490 C   0  0  0  0  0  0  0  0  0  0  0  0
   -0.8512   11.6347  -10.0703 H   0  0  0  0  0  0  0  0  0  0  0  0
 12 13  1  0  0  0
 13 14  2  0  0  0
 13  6  1  0  0  0
  6 11  2  0  0  0
  6  7  1  0  0  0
  7  8  2  0  0  0
  8  9  1  0  0  0
  9 10  2  0  0  0
 10 11  1  0  0  0
 11  5  1  0  0  0
  5  4  1  0  0  0
  4  1  1  0  0  0
  1  2  1  0  0  0
  1 15  1  0  0  0
 15 16  1  0  0  0
 16 23  1  0  0  0
 16 17  1  0  0  0
 17 18  1  0  0  0
 18 22  1  0  0  0
 18 19  1  0  0  0
 19 20  1  0  0  0
 20 21  1  0  0  0
 21 22  1  0  0  0
 22 23  1  0  0  0
  2  3  1  0  0  0
 16 24  1  0  0  0
M  CHG 1  12  -1
M  CHG 1  13   1
M  CHG 1  16   1
M  END
> <minimizedAffinity>
-6.89363

$$$$
ZINC000067772539


 28 32  0  0  0  0  0  0  0  0999 V2000
   -7.5584   17.5149   -9.2490 C   0  0  0  0  0  0  0  0  0  0  0  0
   -7.9672   17.7115   -7.9768 C   0  0  0  0  0  0  0  0  0  0  0  0
   -8.4509   18.9780   -7.8855 N   0  0  0  0  0  0  0  0  0  0  0  0
   -8.3343   19.5783   -9.1457 N   0  0  0  0  0  0  0  0  0  0  0  0
   -7.7927   18.7038   -9.9679 C   0  0  0  0  0  0  0  0  0  0  0  0
   -5.3514   14.7325   -6.8812 C   0  0  0  0  0  0  0  0  0  0  0  0
   -5.9053   13.6954   -7.4554 N   0  0  0  0  0  0  0  0  0  0  0  0
   -6.5385   14.0942   -8.5584 C   0  0  0  0  0  0  0  0  0  0  0  0
   -6.3745   15.4316   -8.6758 C   0  0  0  0  0  0  0  0  0  0  0  0
   -5.6236   15.8356   -7.6173 N   0  0  0  0  0  0  0  0  0  0  0  0
   -6.9527   16.2499   -9.8003 C   0  0  0  0  0  0  0  0  0  0  0  0
   -7.9943   15.4488  -10.4665 N   0  0  0  0  0  0  0  0  0  0  0  0
   -7.4970   14.1133  -10.8248 C   0  0  0  0  0  0  0  0  0  0  0  0
   -7.3182   13.2706   -9.5541 C   0  0  0  0  0  0  0  0  0  0  0  0
   -4.6121   18.1636  -10.4339 H   0  0  0  0  0  0  0  0  0  0  0  0
   -4.6121   18.1636  -10.4339 H   0  0  0  0  0  0  0  0  0  0  0  0
   -8.9741   19.5783   -6.7326 C   0  0  0  0  0  0  0  0  0  0  0  0
   -9.4728   20.8731   -6.7875 C   0  0  0  0  0  0  0  0  0  0  0  0
   -9.9878   21.4620   -5.6494 C   0  0  0  0  0  0  0  0  0  0  0  0
  -10.0073   20.7636   -4.4560 C   0  0  0  0  0  0  0  0  0  0  0  0
   -9.5114   19.4741   -4.3982 C   0  0  0  0  0  0  0  0  0  0  0  0
   -9.0003   18.8776   -5.5342 C   0  0  0  0  0  0  0  0  0  0  0  0
   -7.4907   18.9282  -11.4028 C   0  0  0  0  0  0  0  0  0  0  0  0
   -8.1705   19.9057  -12.1352 C   0  0  0  0  0  0  0  0  0  0  0  0
   -7.8581   20.0817  -13.4674 C   0  0  0  0  0  0  0  0  0  0  0  0
   -6.9333   19.3425  -14.0495 N   0  0  0  0  0  0  0  0  0  0  0  0
   -6.2688   18.4097  -13.3944 C   0  0  0  0  0  0  0  0  0  0  0  0
   -6.5145   18.1719  -12.0579 C   0  0  0  0  0  0  0  0  0  0  0  0
  6 10  1  0  0  0
  6  7  2  0  0  0
  7  8  1  0  0  0
  8 14  1  0  0  0
  8  9  2  0  0  0
  9 10  1  0  0  0
  9 11  1  0  0  0
 11  1  1  0  0  0
 11 12  1  0  0  0
  1  5  1  0  0  0
  1  2  2  0  0  0
  2  3  1  0  0  0
  3 17  1  0  0  0
  3  4  1  0  0  0
 17 22  1  0  0  0
 17 18  2  0  0  0
 18 19  1  0  0  0
 19 20  2  0  0  0
 20 21  1  0  0  0
 21 22  2  0  0  0
  4  5  2  0  0  0
  5 23  1  0  0  0
 23 28  1  0  0  0
 23 24  2  0  0  0
 24 25  1  0  0  0
 25 26  2  0  0  0
 26 27  1  0  0  0
 27 28  2  0  0  0
 12 13  1  0  0  0
 13 14  1  0  0  0
 10 15  1  0  0  0
 12 16  1  0  0  0
M  END
> <minimizedAffinity>
-8.46095

$$$$
ZINC000012547395


 32 34  0  0  0  0  0  0  0  0999 V2000
   -8.7127   18.0701   -6.1496 C   0  0  0  0  0  0  0  0  0  0  0  0
   -9.5200   17.9067   -5.0271 C   0  0  0  0  0  0  0  0  0  0  0  0
  -10.2396   18.9711   -4.5345 C   0  0  0  0  0  0  0  0  0  0  0  0
  -10.1596   20.2175   -5.1623 C   0  0  0  0  0  0  0  0  0  0  0  0
   -9.3481   20.3784   -6.2892 C   0  0  0  0  0  0  0  0  0  0  0  0
   -8.6265   19.3116   -6.7737 C   0  0  0  0  0  0  0  0  0  0  0  0
  -10.9294   21.3608   -4.6364 C   0  0  0  0  0  0  0  0  0  0  0  0
  -11.9397   21.7267   -5.2055 O   0  0  0  0  0  0  0  0  0  0  0  0
  -10.5127   21.9998   -3.5254 N   0  0  0  0  0  0  0  0  0  0  0  0
   -9.2450   21.6227   -2.8953 C   0  0  0  0  0  0  0  0  0  0  0  0
  -11.3275   23.0716   -2.9477 C   0  0  0  0  0  0  0  0  0  0  0  0
  -10.5704   24.3726   -3.0196 C   0  0  0  0  0  0  0  0  0  0  0  0
  -10.3591   25.0709   -4.1016 N   0  0  0  0  0  0  0  0  0  0  0  0
   -9.6521   26.1671   -3.7895 C   0  0  0  0  0  0  0  0  0  0  0  0
   -9.4162   26.1475   -2.4638 C   0  0  0  0  0  0  0  0  0  0  0  0
  -10.0032   25.0119   -1.9741 N   0  0  0  0  0  0  0  0  0  0  0  0
  -10.0078   24.5688   -0.5777 C   0  0  0  0  0  0  0  0  0  0  0  0
   -7.9869   16.9926   -6.6449 N   0  0  0  0  0  0  0  0  0  0  0  0
   -5.9772   12.2022   -8.4602 H   0  0  0  0  0  0  0  0  0  0  0  0
   -8.5811   16.1057   -7.9108 S   0  0  0  0  0  0  0  0  0  0  0  0
   -9.8747   16.6230   -8.1909 O   0  0  0  0  0  0  0  0  0  0  0  0
   -8.3417   14.7417   -7.5924 O   0  0  0  0  0  0  0  0  0  0  0  0
   -5.1651   17.3559  -12.7248 C   0  0  0  0  0  0  0  0  0  0  0  0
   -6.0183   17.0437  -11.5224 C   0  0  0  0  0  0  0  0  0  0  0  0
   -6.6482   18.0658  -10.8376 C   0  0  0  0  0  0  0  0  0  0  0  0
   -7.4309   17.7794   -9.7347 C   0  0  0  0  0  0  0  0  0  0  0  0
   -7.5840   16.4708   -9.3169 C   0  0  0  0  0  0  0  0  0  0  0  0
   -6.9551   15.4482  -10.0027 C   0  0  0  0  0  0  0  0  0  0  0  0
   -6.1757   15.7342  -11.1076 C   0  0  0  0  0  0  0  0  0  0  0  0
   -5.5024   14.6394  -11.8419 N   0  0  0  0  0  0  0  0  0  0  0  0
   -5.9597   14.2437  -12.8991 O   0  0  0  0  0  0  0  0  0  0  0  0
   -4.4909   14.1343  -11.3887 O   0  0  0  0  0  0  0  0  0  0  0  0
 23 24  1  0  0  0
 24 29  2  0  0  0
 24 25  1  0  0  0
 25 26  2  0  0  0
 26 27  1  0  0  0
 27 20  1  0  0  0
 27 28  2  0  0  0
 20 21  2  0  0  0
 20 22  2  0  0  0
 20 18  1  0  0  0
 18  1  1  0  0  0
  1  6  1  0  0  0
  1  2  2  0  0  0
  2  3  1  0  0  0
  3  4  2  0  0  0
  4  7  1  0  0  0
  4  5  1  0  0  0
  7  8  2  0  0  0
  7  9  1  0  0  0
  9 10  1  0  0  0
  9 11  1  0  0  0
 11 12  1  0  0  0
 12 16  1  0  0  0
 12 13  2  0  0  0
 13 14  1  0  0  0
 14 15  2  0  0  0
 15 16  1  0  0  0
 16 17  1  0  0  0
  5  6  2  0  0  0
 28 29  1  0  0  0
 29 30  1  0  0  0
 30 31  1  0  0  0
 30 32  2  0  0  0
 18 19  1  0  0  0
M  CHG 1  30   1
M  CHG 1  31  -1
M  END
> <minimizedAffinity>
-8.07424

$$$$
ZINC000019748547


 27 29  0  0  0  0  0  0  0  0999 V2000
   -8.9391   18.9805   -5.7835 C   0  0  0  0  0  0  0  0  0  0  0  0
   -8.5783   18.3657   -4.8023 O   0  0  0  0  0  0  0  0  0  0  0  0
   -8.8967   18.3969   -6.9977 N   0  0  0  0  0  0  0  0  0  0  0  0
   -9.3236   19.1265   -8.2013 C   0  0  0  0  0  0  0  0  0  0  0  0
   -8.2166   19.0172   -9.2552 C   0  0  0  0  0  0  0  0  0  0  0  0
   -7.8880   17.6017   -9.4707 N   0  0  0  0  0  0  0  0  0  0  0  0
   -7.3505   16.9875   -8.2493 C   0  0  0  0  0  0  0  0  0  0  0  0
   -8.4164   17.0157   -7.1550 C   0  0  0  0  0  0  0  0  0  0  0  0
  -11.0370   22.7448   -3.8009 C   0  0  0  0  0  0  0  0  0  0  0  0
  -12.2130   22.9604   -4.0044 O   0  0  0  0  0  0  0  0  0  0  0  0
  -10.4544   21.6444   -4.3169 N   0  0  0  0  0  0  0  0  0  0  0  0
   -9.1103   21.0480   -4.2937 C   0  0  0  0  0  0  0  0  0  0  0  0
   -9.4348   20.3969   -5.6453 C   0  0  0  0  0  0  0  0  0  0  0  0
  -10.8847   20.5083   -5.1458 C   0  0  0  0  0  0  0  0  0  0  0  0
  -10.2270   23.7073   -2.9710 C   0  0  0  0  0  0  0  0  0  0  0  0
  -10.7832   25.0559   -3.1055 N   0  0  0  0  0  0  0  0  0  0  0  0
   -9.8909   26.2526   -3.8230 H   0  0  0  0  0  0  0  0  0  0  0  0
   -9.5951   25.6550   -5.5058 C   0  0  0  0  0  0  0  0  0  0  0  0
   -9.8886   26.2531   -3.8185 S   0  0  0  0  0  0  0  0  0  0  0  0
   -8.6757   26.2724   -3.0783 O   0  0  0  0  0  0  0  0  0  0  0  0
  -10.7566   27.3781   -3.8323 O   0  0  0  0  0  0  0  0  0  0  0  0
   -7.0009   17.4508  -10.5389 C   0  0  0  0  0  0  0  0  0  0  0  0
   -6.0942   16.3985  -10.5475 C   0  0  0  0  0  0  0  0  0  0  0  0
   -5.2188   16.2521  -11.6055 C   0  0  0  0  0  0  0  0  0  0  0  0
   -5.2438   17.1517  -12.6554 C   0  0  0  0  0  0  0  0  0  0  0  0
   -6.1452   18.2004  -12.6501 C   0  0  0  0  0  0  0  0  0  0  0  0
   -7.0272   18.3495  -11.5979 C   0  0  0  0  0  0  0  0  0  0  0  0
 18 19  1  0  0  0
 19 20  2  0  0  0
 19 21  2  0  0  0
 19 16  1  0  0  0
 16 15  1  0  0  0
 15  9  1  0  0  0
  9 10  2  0  0  0
  9 11  1  0  0  0
 11 14  1  0  0  0
 11 12  1  0  0  0
 12 13  1  0  0  0
 13  1  1  0  0  0
 13 14  1  0  0  0
  1  2  2  0  0  0
  1  3  1  0  0  0
  3  8  1  0  0  0
  3  4  1  0  0  0
  4  5  1  0  0  0
  5  6  1  0  0  0
  6 22  1  0  0  0
  6  7  1  0  0  0
 22 27  1  0  0  0
 22 23  2  0  0  0
 23 24  1  0  0  0
 24 25  2  0  0  0
 25 26  1  0  0  0
 26 27  2  0  0  0
  7  8  1  0  0  0
 16 17  1  0  0  0
M  END
> <minimizedAffinity>
-7.72940

$$$$
ZINC000022096006


 35 39  0  0  0  0  0  0  0  0999 V2000
   -7.5518   16.3670   -9.1093 C   0  0  0  0  0  0  0  0  0  0  0  0
   -8.0166   17.6694   -8.8164 C   0  0  0  0  0  0  0  0  0  0  0  0
   -8.5199   18.0421   -7.5544 C   0  0  0  0  0  0  0  0  0  0  0  0
   -8.9583   19.3602   -7.3586 C   0  0  0  0  0  0  0  0  0  0  0  0
   -8.8993   20.2490   -8.3537 N   0  0  0  0  0  0  0  0  0  0  0  0
   -8.4371   19.9493   -9.5512 C   0  0  0  0  0  0  0  0  0  0  0  0
   -8.4050   20.9209  -10.5363 N   0  0  0  0  0  0  0  0  0  0  0  0
   -7.9747   18.6477   -9.8386 C   0  0  0  0  0  0  0  0  0  0  0  0
   -7.4736   18.2874  -11.1044 C   0  0  0  0  0  0  0  0  0  0  0  0
   -7.4244   19.2252  -12.1144 N   0  0  0  0  0  0  0  0  0  0  0  0
   -7.0493   17.0547  -11.3304 N   0  0  0  0  0  0  0  0  0  0  0  0
   -7.0650   16.1086  -10.4004 C   0  0  0  0  0  0  0  0  0  0  0  0
   -9.3923   19.4524   -6.0604 N   0  0  0  0  0  0  0  0  0  0  0  0
   -9.2450   18.2405   -5.4264 C   0  0  0  0  0  0  0  0  0  0  0  0
   -8.7199   17.3450   -6.2833 C   0  0  0  0  0  0  0  0  0  0  0  0
   -8.4303   16.0408   -6.0182 O   0  0  0  0  0  0  0  0  0  0  0  0
   -6.4128   15.7297   -8.0281 H   0  0  0  0  0  0  0  0  0  0  0  0
   -6.4128   15.7297   -8.0281 H   0  0  0  0  0  0  0  0  0  0  0  0
   -6.4128   15.7297   -8.0281 H   0  0  0  0  0  0  0  0  0  0  0  0
   -6.4128   15.7297   -8.0281 H   0  0  0  0  0  0  0  0  0  0  0  0
   -6.4128   15.7297   -8.0281 H   0  0  0  0  0  0  0  0  0  0  0  0
   -6.6045   14.8434  -10.7115 N   0  0  0  0  0  0  0  0  0  0  0  0
   -5.2891   14.9074  -11.3648 C   0  0  0  0  0  0  0  0  0  0  0  0
   -4.7909   13.4856  -11.6372 C   0  0  0  0  0  0  0  0  0  0  0  0
   -5.7567   12.7914  -12.4314 O   0  0  0  0  0  0  0  0  0  0  0  0
   -7.0493   12.7097  -11.8248 C   0  0  0  0  0  0  0  0  0  0  0  0
   -7.5704   14.1237  -11.5544 C   0  0  0  0  0  0  0  0  0  0  0  0
   -7.5872   14.5233   -7.3219 N   0  0  0  0  0  0  0  0  0  0  0  0
   -7.5716   15.3389   -8.1126 C   0  0  0  0  0  0  0  0  0  0  0  0
   -9.9339   20.6642   -5.4403 C   0  0  0  0  0  0  0  0  0  0  0  0
   -9.9582   20.4944   -3.9431 C   0  0  0  0  0  0  0  0  0  0  0  0
   -9.0452   20.9779   -3.0816 C   0  0  0  0  0  0  0  0  0  0  0  0
   -9.4562   20.5865   -1.7867 C   0  0  0  0  0  0  0  0  0  0  0  0
  -10.5958   19.8872   -1.9343 C   0  0  0  0  0  0  0  0  0  0  0  0
  -10.8982   19.8396   -3.2419 O   0  0  0  0  0  0  0  0  0  0  0  0
 28 29  3  0  0  0
 29  1  1  0  0  0
  1 12  2  0  0  0
  1  2  1  0  0  0
  2  8  2  0  0  0
  2  3  1  0  0  0
  3 15  1  0  0  0
  3  4  2  0  0  0
  4  5  1  0  0  0
  4 13  1  0  0  0
  5  6  2  0  0  0
  6  7  1  0  0  0
  6  8  1  0  0  0
  8  9  1  0  0  0
  9 10  1  0  0  0
  9 11  2  0  0  0
 11 12  1  0  0  0
 12 22  1  0  0  0
 22 27  1  0  0  0
 22 23  1  0  0  0
 23 24  1  0  0  0
 24 25  1  0  0  0
 25 26  1  0  0  0
 26 27  1  0  0  0
 13 30  1  0  0  0
 13 14  1  0  0  0
 30 31  1  0  0  0
 31 35  1  0  0  0
 31 32  2  0  0  0
 32 33  1  0  0  0
 33 34  2  0  0  0
 34 35  1  0  0  0
 14 15  2  0  0  0
 15 16  1  0  0  0
  7 17  1  0  0  0
  7 18  1  0  0  0
 10 19  1  0  0  0
 10 20  1  0  0  0
 16 21  1  0  0  0
M  END
> <minimizedAffinity>
-8.36918

$$$$
ZINC000032876691


 31 33  0  0  0  0  0  0  0  0999 V2000
   -9.2999   17.1154   -7.2635 C   0  0  0  0  0  0  0  0  0  0  0  0
   -9.8111   16.3405   -8.0368 O   0  0  0  0  0  0  0  0  0  0  0  0
   -9.9825   17.5392   -6.1882 O   0  0  0  0  0  0  0  0  0  0  0  0
   -9.4517   17.2385   -3.8307 C   0  0  0  0  0  0  0  0  0  0  0  0
   -9.2070   18.0788   -5.0857 C   0  0  0  0  0  0  0  0  0  0  0  0
   -9.6260   19.5029   -4.8264 C   0  0  0  0  0  0  0  0  0  0  0  0
  -10.1863   19.7910   -3.7901 O   0  0  0  0  0  0  0  0  0  0  0  0
   -9.3781   20.4565   -5.7460 N   0  0  0  0  0  0  0  0  0  0  0  0
   -9.2030   18.0760   -5.0871 H   0  0  0  0  0  0  0  0  0  0  0  0
   -9.7854   21.8410   -5.4940 C   0  0  0  0  0  0  0  0  0  0  0  0
   -9.0982   22.3519   -4.2260 C   0  0  0  0  0  0  0  0  0  0  0  0
   -9.5237   23.7977   -3.9626 C   0  0  0  0  0  0  0  0  0  0  0  0
   -9.1184   24.6730   -5.1503 C   0  0  0  0  0  0  0  0  0  0  0  0
   -9.8056   24.1620   -6.4183 C   0  0  0  0  0  0  0  0  0  0  0  0
   -9.3802   22.7162   -6.6816 C   0  0  0  0  0  0  0  0  0  0  0  0
  -11.2457   21.8984   -5.3177 C   0  0  0  0  0  0  0  0  0  0  0  0
  -12.3727   21.9426   -5.1817 N   0  0  0  0  0  0  0  0  0  0  0  0
   -7.8958   17.6061   -7.5062 C   0  0  0  0  0  0  0  0  0  0  0  0
   -7.7953   18.1467   -8.8640 N   0  0  0  0  0  0  0  0  0  0  0  0
   -8.3351   19.2976   -9.3106 C   0  0  0  0  0  0  0  0  0  0  0  0
   -8.0411   19.4617  -10.5752 N   0  0  0  0  0  0  0  0  0  0  0  0
   -7.3035   18.4347  -11.0052 C   0  0  0  0  0  0  0  0  0  0  0  0
   -7.1244   17.5766   -9.9274 C   0  0  0  0  0  0  0  0  0  0  0  0
   -6.3723   16.3956  -10.1063 C   0  0  0  0  0  0  0  0  0  0  0  0
   -6.2017   15.6272   -9.1768 O   0  0  0  0  0  0  0  0  0  0  0  0
   -5.8450   16.1277  -11.3190 N   0  0  0  0  0  0  0  0  0  0  0  0
   -5.0637   14.9034  -11.5115 C   0  0  0  0  0  0  0  0  0  0  0  0
   -6.0261   16.9669  -12.3532 C   0  0  0  0  0  0  0  0  0  0  0  0
   -5.5364   16.6925  -13.4319 O   0  0  0  0  0  0  0  0  0  0  0  0
   -6.7331   18.1055  -12.2241 N   0  0  0  0  0  0  0  0  0  0  0  0
   -6.9073   18.9928  -13.3766 C   0  0  0  0  0  0  0  0  0  0  0  0
  4  5  1  0  0  0
  5  3  1  0  0  0
  5  6  1  0  0  0
  3  1  1  0  0  0
  1  2  2  0  0  0
  1 18  1  0  0  0
 18 19  1  0  0  0
 19 23  1  0  0  0
 19 20  1  0  0  0
 20 21  2  0  0  0
 21 22  1  0  0  0
 22 30  1  0  0  0
 22 23  2  0  0  0
 23 24  1  0  0  0
 24 25  2  0  0  0
 24 26  1  0  0  0
 26 27  1  0  0  0
 26 28  1  0  0  0
 28 29  2  0  0  0
 28 30  1  0  0  0
 30 31  1  0  0  0
  6  7  2  0  0  0
  6  8  1  0  0  0
  8 10  1  0  0  0
 10 15  1  0  0  0
 10 16  1  0  0  0
 10 11  1  0  0  0
 16 17  3  0  0  0
 11 12  1  0  0  0
 12 13  1  0  0  0
 13 14  1  0  0  0
 14 15  1  0  0  0
  8  9  1  0  0  0
M  END
> <minimizedAffinity>
-7.95001

$$$$
ZINC000004524626


 17 18  0  0  0  0  0  0  0  0999 V2000
   -5.7611   15.1667   -9.4429 C   0  0  0  0  0  0  0  0  0  0  0  0
   -5.5532   15.1418   -8.1699 N   0  0  0  0  0  0  0  0  0  0  0  0
   -6.0840   16.6020   -7.4957 S   0  0  0  0  0  0  0  0  0  0  0  0
   -6.6320   17.3232   -9.0106 C   0  0  0  0  0  0  0  0  0  0  0  0
   -7.2120   18.5419   -9.3336 C   0  0  0  0  0  0  0  0  0  0  0  0
   -7.5331   18.8173  -10.6341 C   0  0  0  0  0  0  0  0  0  0  0  0
   -7.2793   17.8810  -11.6284 C   0  0  0  0  0  0  0  0  0  0  0  0
   -6.7113   16.6792  -11.3354 C   0  0  0  0  0  0  0  0  0  0  0  0
   -6.3627   16.3642  -10.0055 C   0  0  0  0  0  0  0  0  0  0  0  0
   -8.1519   20.1159  -10.9830 N   0  0  0  0  0  0  0  0  0  0  0  0
   -8.5484   20.8578  -10.1021 O   0  0  0  0  0  0  0  0  0  0  0  0
   -8.2646   20.4426  -12.1509 O   0  0  0  0  0  0  0  0  0  0  0  0
   -6.4528   15.7022  -12.4170 N   0  0  0  0  0  0  0  0  0  0  0  0
   -5.4122   15.7534  -13.0480 O   0  0  0  0  0  0  0  0  0  0  0  0
   -7.2805   14.8471  -12.6761 O   0  0  0  0  0  0  0  0  0  0  0  0
   -6.0251   12.8533   -9.9223 C   0  0  0  0  0  0  0  0  0  0  0  0
   -5.4241   14.1125  -10.2311 O   0  0  0  0  0  0  0  0  0  0  0  0
 16 17  1  0  0  0
 17  1  1  0  0  0
  1  9  1  0  0  0
  1  2  2  0  0  0
  2  3  1  0  0  0
  3  4  1  0  0  0
  4  9  2  0  0  0
  4  5  1  0  0  0
  5  6  2  0  0  0
  6 10  1  0  0  0
  6  7  1  0  0  0
 10 11  1  0  0  0
 10 12  2  0  0  0
  7  8  2  0  0  0
  8 13  1  0  0  0
  8  9  1  0  0  0
 13 14  1  0  0  0
 13 15  2  0  0  0
M  CHG 1  10   1
M  CHG 1  11  -1
M  CHG 1  13   1
M  CHG 1  14  -1
M  END
> <minimizedAffinity>
-6.40673

$$$$
ZINC000012145961


 25 27  0  0  0  0  0  0  0  0999 V2000
   -5.8328   15.5639  -10.1126 C   0  0  0  0  0  0  0  0  0  0  0  0
   -5.6080   15.8991  -11.4333 C   0  0  0  0  0  0  0  0  0  0  0  0
   -6.1323   17.0900  -11.9270 C   0  0  0  0  0  0  0  0  0  0  0  0
   -6.8325   17.8802  -11.1387 N   0  0  0  0  0  0  0  0  0  0  0  0
   -7.0562   17.5673   -9.8623 C   0  0  0  0  0  0  0  0  0  0  0  0
   -7.7603   18.2326   -8.8369 C   0  0  0  0  0  0  0  0  0  0  0  0
   -7.6539   17.3875   -7.6428 C   0  0  0  0  0  0  0  0  0  0  0  0
   -6.9397   16.3249   -7.9805 N   0  0  0  0  0  0  0  0  0  0  0  0
   -6.5693   16.4102   -9.3286 N   0  0  0  0  0  0  0  0  0  0  0  0
   -8.2438   17.7908   -6.5073 N   0  0  0  0  0  0  0  0  0  0  0  0
   -8.9079   18.9203   -6.4517 C   0  0  0  0  0  0  0  0  0  0  0  0
   -9.5489   19.3210   -5.1480 C   0  0  0  0  0  0  0  0  0  0  0  0
   -9.0426   19.7614   -7.5490 C   0  0  0  0  0  0  0  0  0  0  0  0
   -8.4745   19.4331   -8.7506 C   0  0  0  0  0  0  0  0  0  0  0  0
   -8.6148   20.3386   -9.9470 C   0  0  0  0  0  0  0  0  0  0  0  0
   -5.3275   14.3911   -9.5929 N   0  0  0  0  0  0  0  0  0  0  0  0
   -4.3289    9.7094   -9.1835 H   0  0  0  0  0  0  0  0  0  0  0  0
   -5.5520   13.1234  -10.2921 C   0  0  0  0  0  0  0  0  0  0  0  0
   -6.8841   12.5517   -9.8803 C   0  0  0  0  0  0  0  0  0  0  0  0
   -6.9618   11.8426   -8.9050 O   0  0  0  0  0  0  0  0  0  0  0  0
   -7.9844   12.8303  -10.5968 O   0  0  0  0  0  0  0  0  0  0  0  0
   -9.0056   13.6111  -12.6652 C   0  0  0  0  0  0  0  0  0  0  0  0
   -7.8476   12.8288  -12.0424 C   0  0  0  0  0  0  0  0  0  0  0  0
   -5.8995   17.4759  -13.3650 C   0  0  0  0  0  0  0  0  0  0  0  0
   -6.7521   18.6987  -13.7093 C   0  0  0  0  0  0  0  0  0  0  0  0
 22 23  1  0  0  0
 23 21  1  0  0  0
 21 19  1  0  0  0
 19 20  2  0  0  0
 19 18  1  0  0  0
 18 16  1  0  0  0
 16  1  1  0  0  0
  1  9  1  0  0  0
  1  2  2  0  0  0
  2  3  1  0  0  0
  3 24  1  0  0  0
  3  4  2  0  0  0
 24 25  1  0  0  0
  4  5  1  0  0  0
  5  9  1  0  0  0
  5  6  2  0  0  0
  6 14  1  0  0  0
  6  7  1  0  0  0
  7  8  2  0  0  0
  7 10  1  0  0  0
  8  9  1  0  0  0
 10 11  2  0  0  0
 11 12  1  0  0  0
 11 13  1  0  0  0
 13 14  2  0  0  0
 14 15  1  0  0  0
 16 17  1  0  0  0
M  END
> <minimizedAffinity>
-8.22951

$$$$
ZINC000247749130


 26 29  0  0  0  0  0  0  0  0999 V2000
   -9.5648   19.3693   -8.1962 C   0  0  0  0  0  0  0  0  0  0  0  0
   -9.0565   20.7161   -7.6587 C   0  0  0  0  0  0  0  0  0  0  0  0
   -9.7663   20.9648   -6.3849 N   0  0  0  0  0  0  0  0  0  0  0  0
  -10.6313   21.9770   -6.1154 C   0  0  0  0  0  0  0  0  0  0  0  0
  -11.0501   21.8373   -4.8383 C   0  0  0  0  0  0  0  0  0  0  0  0
  -10.4157   20.6935   -4.3077 C   0  0  0  0  0  0  0  0  0  0  0  0
   -9.6395   20.1849   -5.2792 C   0  0  0  0  0  0  0  0  0  0  0  0
   -8.7582   18.9501   -5.1915 C   0  0  0  0  0  0  0  0  0  0  0  0
   -9.3133   17.9551   -6.1269 N   0  0  0  0  0  0  0  0  0  0  0  0
   -8.8955   18.2194   -7.4861 C   0  0  0  0  0  0  0  0  0  0  0  0
   -8.8542   19.1753  -12.1636 H   0  0  0  0  0  0  0  0  0  0  0  0
   -9.2835   19.2854   -9.5947 O   0  0  0  0  0  0  0  0  0  0  0  0
   -8.1614   20.0669  -10.0098 C   0  0  0  0  0  0  0  0  0  0  0  0
   -8.2624   20.4436  -12.3373 O   0  0  0  0  0  0  0  0  0  0  0  0
   -7.8293   19.7464  -11.4444 C   0  0  0  0  0  0  0  0  0  0  0  0
   -7.0555   18.6820  -11.7353 N   0  0  0  0  0  0  0  0  0  0  0  0
   -6.4722   17.7534  -10.7561 C   0  0  0  0  0  0  0  0  0  0  0  0
   -5.6472   16.7145  -11.5446 C   0  0  0  0  0  0  0  0  0  0  0  0
   -5.3493   17.4480  -12.8791 C   0  0  0  0  0  0  0  0  0  0  0  0
   -6.6590   18.2523  -13.0887 C   0  0  0  0  0  0  0  0  0  0  0  0
   -8.8510   16.6169   -5.7350 C   0  0  0  0  0  0  0  0  0  0  0  0
   -8.4001   15.8627   -6.9593 C   0  0  0  0  0  0  0  0  0  0  0  0
   -9.2079   15.3662   -7.8975 C   0  0  0  0  0  0  0  0  0  0  0  0
   -8.5651   14.7102   -8.9332 C   0  0  0  0  0  0  0  0  0  0  0  0
   -7.2352   14.6740   -8.8361 C   0  0  0  0  0  0  0  0  0  0  0  0
   -6.7277   15.5089   -7.3735 S   0  0  0  0  0  0  0  0  0  0  0  0
 14 15  2  0  0  0
 15 13  1  0  0  0
 15 16  1  0  0  0
 13 12  1  0  0  0
 12  1  1  0  0  0
  1 10  1  0  0  0
  1  2  1  0  0  0
  2  3  1  0  0  0
  3  7  1  0  0  0
  3  4  1  0  0  0
  4  5  2  0  0  0
  5  6  1  0  0  0
  6  7  2  0  0  0
  7  8  1  0  0  0
  8  9  1  0  0  0
  9 21  1  0  0  0
  9 10  1  0  0  0
 21 22  1  0  0  0
 22 26  1  0  0  0
 22 23  2  0  0  0
 23 24  1  0  0  0
 24 25  2  0  0  0
 25 26  1  0  0  0
 16 20  1  0  0  0
 16 17  1  0  0  0
 17 18  1  0  0  0
 18 19  1  0  0  0
 19 20  1  0  0  0
  9 11  1  0  0  0
M  CHG 1   9   1
M  END
> <minimizedAffinity>
-7.38299

$$$$
ZINC000031628591


 21 22  0  0  0  0  0  0  0  0999 V2000
   -6.2296   14.4132  -12.1441 S   0  0  0  0  0  0  0  0  0  0  0  0
   -5.3360   13.6528  -12.9458 O   0  0  0  0  0  0  0  0  0  0  0  0
   -7.5602   14.7181  -12.5388 O   0  0  0  0  0  0  0  0  0  0  0  0
   -5.8390   15.5176   -9.0624 C   0  0  0  0  0  0  0  0  0  0  0  0
   -6.1660   14.1205   -9.3577 N   0  0  0  0  0  0  0  0  0  0  0  0
   -6.3492   13.1325   -8.4555 C   0  0  0  0  0  0  0  0  0  0  0  0
   -6.6252   12.0285   -9.0943 N   0  0  0  0  0  0  0  0  0  0  0  0
   -6.6280   12.2697  -10.4138 C   0  0  0  0  0  0  0  0  0  0  0  0
   -6.3488   13.5740  -10.5993 C   0  0  0  0  0  0  0  0  0  0  0  0
   -6.8980   11.2778  -11.4787 N   0  0  0  0  0  0  0  0  0  0  0  0
   -6.0315   10.4883  -11.8096 O   0  0  0  0  0  0  0  0  0  0  0  0
   -7.9867   11.2511  -12.0243 O   0  0  0  0  0  0  0  0  0  0  0  0
   -5.4827   15.8632  -11.8580 N   0  0  0  0  0  0  0  0  0  0  0  0
   -4.3804   12.8238  -13.9221 H   0  0  0  0  0  0  0  0  0  0  0  0
   -5.4988   16.9102  -12.8825 C   0  0  0  0  0  0  0  0  0  0  0  0
   -6.6514   17.7939  -12.6614 N   0  0  0  0  0  0  0  0  0  0  0  0
   -6.6575   18.9031  -13.6263 C   0  0  0  0  0  0  0  0  0  0  0  0
   -7.9035   19.7630  -13.3991 C   0  0  0  0  0  0  0  0  0  0  0  0
   -7.9188   20.2231  -12.0450 O   0  0  0  0  0  0  0  0  0  0  0  0
   -7.9139   19.1689  -11.0787 C   0  0  0  0  0  0  0  0  0  0  0  0
   -6.6679   18.3030  -11.2823 C   0  0  0  0  0  0  0  0  0  0  0  0
  4  5  1  0  0  0
  5  9  1  0  0  0
  5  6  1  0  0  0
  6  7  2  0  0  0
  7  8  1  0  0  0
  8 10  1  0  0  0
  8  9  2  0  0  0
 10 11  1  0  0  0
 10 12  2  0  0  0
  9  1  1  0  0  0
  1  2  2  0  0  0
  1  3  2  0  0  0
  1 13  1  0  0  0
 13 15  1  0  0  0
 15 16  1  0  0  0
 16 21  1  0  0  0
 16 17  1  0  0  0
 17 18  1  0  0  0
 18 19  1  0  0  0
 19 20  1  0  0  0
 20 21  1  0  0  0
 13 14  1  0  0  0
M  CHG 1  10   1
M  CHG 1  11  -1
M  END
> <minimizedAffinity>
-6.85693

$$$$
ZINC000100861501


 30 33  0  0  0  0  0  0  0  0999 V2000
   -8.5497   20.0785   -8.9813 C   0  0  0  0  0  0  0  0  0  0  0  0
   -8.6230   20.8174  -10.0710 N   0  0  0  0  0  0  0  0  0  0  0  0
   -8.0690   20.1181  -11.1883 O   0  0  0  0  0  0  0  0  0  0  0  0
   -7.1308   19.2073  -10.5925 C   0  0  0  0  0  0  0  0  0  0  0  0
   -6.9791   17.9099  -11.3366 C   0  0  0  0  0  0  0  0  0  0  0  0
   -6.6592   17.7624  -12.4970 O   0  0  0  0  0  0  0  0  0  0  0  0
   -7.2738   16.9417  -10.4396 N   0  0  0  0  0  0  0  0  0  0  0  0
   -7.7167   17.4761   -9.2462 C   0  0  0  0  0  0  0  0  0  0  0  0
   -7.8892   16.7647   -8.1083 O   0  0  0  0  0  0  0  0  0  0  0  0
   -7.9380   18.8023   -9.3464 C   0  0  0  0  0  0  0  0  0  0  0  0
  -11.4534   21.7407   -4.6387 H   0  0  0  0  0  0  0  0  0  0  0  0
   -9.8467   21.2085   -5.0887 C   0  0  0  0  0  0  0  0  0  0  0  0
   -9.4772   19.8963   -5.3431 C   0  0  0  0  0  0  0  0  0  0  0  0
   -9.0562   19.5275   -6.6043 C   0  0  0  0  0  0  0  0  0  0  0  0
   -9.0015   20.4742   -7.6260 C   0  0  0  0  0  0  0  0  0  0  0  0
   -9.3730   21.7942   -7.3712 C   0  0  0  0  0  0  0  0  0  0  0  0
   -9.7996   22.1578   -6.1075 C   0  0  0  0  0  0  0  0  0  0  0  0
   -9.2499   21.7485   -2.8516 C   0  0  0  0  0  0  0  0  0  0  0  0
  -10.2610   21.5678   -3.8450 O   0  0  0  0  0  0  0  0  0  0  0  0
  -10.1629   23.4440   -5.8561 O   0  0  0  0  0  0  0  0  0  0  0  0
   -9.1359   24.4348   -5.9317 C   0  0  0  0  0  0  0  0  0  0  0  0
   -7.1454   15.5693  -10.6897 C   0  0  0  0  0  0  0  0  0  0  0  0
   -8.2222   14.8496  -11.1904 C   0  0  0  0  0  0  0  0  0  0  0  0
   -8.0925   13.4967  -11.4359 C   0  0  0  0  0  0  0  0  0  0  0  0
   -6.8917   12.8588  -11.1835 C   0  0  0  0  0  0  0  0  0  0  0  0
   -5.8174   13.5729  -10.6853 C   0  0  0  0  0  0  0  0  0  0  0  0
   -5.9393   14.9271  -10.4427 C   0  0  0  0  0  0  0  0  0  0  0  0
   -6.7560   11.4086  -11.4478 N   0  0  0  0  0  0  0  0  0  0  0  0
   -7.7504   10.7137  -11.5565 O   0  0  0  0  0  0  0  0  0  0  0  0
   -5.6500   10.9102  -11.5565 O   0  0  0  0  0  0  0  0  0  0  0  0
 18 19  1  0  0  0
 19 12  1  0  0  0
 12 17  2  0  0  0
 12 13  1  0  0  0
 13 14  2  0  0  0
 14 15  1  0  0  0
 15  1  1  0  0  0
 15 16  2  0  0  0
  1 10  1  0  0  0
  1  2  2  0  0  0
  2  3  1  0  0  0
  3  4  1  0  0  0
  4 10  1  0  0  0
  4  5  1  0  0  0
  5  6  2  0  0  0
  5  7  1  0  0  0
  7 22  1  0  0  0
  7  8  1  0  0  0
 22 27  1  0  0  0
 22 23  2  0  0  0
 23 24  1  0  0  0
 24 25  2  0  0  0
 25 28  1  0  0  0
 25 26  1  0  0  0
 28 29  1  0  0  0
 28 30  2  0  0  0
 26 27  2  0  0  0
  8  9  1  0  0  0
  8 10  2  0  0  0
 16 17  1  0  0  0
 17 20  1  0  0  0
 20 21  1  0  0  0
  9 11  1  0  0  0
M  CHG 1  28   1
M  CHG 1  29  -1
M  END
> <minimizedAffinity>
-8.93427

$$$$
ZINC000002339998


 30 33  0  0  0  0  0  0  0  0999 V2000
   -7.5270   17.3621  -10.4010 N   0  0  0  0  0  0  0  0  0  0  0  0
   -7.8968   18.6320  -10.1179 C   0  0  0  0  0  0  0  0  0  0  0  0
   -7.8846   19.4950  -10.9775 O   0  0  0  0  0  0  0  0  0  0  0  0
   -8.2989   18.9287   -8.7930 C   0  0  0  0  0  0  0  0  0  0  0  0
   -8.2918   17.9063   -7.8273 C   0  0  0  0  0  0  0  0  0  0  0  0
   -7.9164   16.6753   -8.1910 N   0  0  0  0  0  0  0  0  0  0  0  0
   -7.5536   16.4084   -9.4271 C   0  0  0  0  0  0  0  0  0  0  0  0
   -8.6600   18.1687   -6.5376 N   0  0  0  0  0  0  0  0  0  0  0  0
   -8.3388   17.1938   -5.4923 C   0  0  0  0  0  0  0  0  0  0  0  0
   -9.3267   19.3290   -6.1929 C   0  0  0  0  0  0  0  0  0  0  0  0
   -9.9512   19.4409   -4.9544 C   0  0  0  0  0  0  0  0  0  0  0  0
  -10.6100   20.6039   -4.6179 C   0  0  0  0  0  0  0  0  0  0  0  0
  -10.6597   21.6714   -5.5021 C   0  0  0  0  0  0  0  0  0  0  0  0
  -10.0500   21.5814   -6.7349 C   0  0  0  0  0  0  0  0  0  0  0  0
   -9.3820   20.4106   -7.0884 C   0  0  0  0  0  0  0  0  0  0  0  0
   -8.7247   20.2748   -8.4052 C   0  0  0  0  0  0  0  0  0  0  0  0
   -8.5460   21.2362   -9.1326 O   0  0  0  0  0  0  0  0  0  0  0  0
   -7.1490   15.0298   -9.7690 C   0  0  0  0  0  0  0  0  0  0  0  0
   -5.8752   14.5682   -9.4301 C   0  0  0  0  0  0  0  0  0  0  0  0
   -5.5042   13.2793   -9.7519 C   0  0  0  0  0  0  0  0  0  0  0  0
   -6.3905   12.4444  -10.4094 C   0  0  0  0  0  0  0  0  0  0  0  0
   -7.6542   12.8951  -10.7479 C   0  0  0  0  0  0  0  0  0  0  0  0
   -8.0405   14.1799  -10.4274 C   0  0  0  0  0  0  0  0  0  0  0  0
   -5.9849   11.0627  -10.7520 N   0  0  0  0  0  0  0  0  0  0  0  0
   -6.2280   10.6130  -11.8575 O   0  0  0  0  0  0  0  0  0  0  0  0
   -5.4080   10.3755   -9.9283 O   0  0  0  0  0  0  0  0  0  0  0  0
   -7.1026   17.0096  -11.7581 C   0  0  0  0  0  0  0  0  0  0  0  0
   -5.6145   17.3236  -11.9249 C   0  0  0  0  0  0  0  0  0  0  0  0
   -6.5841   18.3105  -13.8822 C   0  0  0  0  0  0  0  0  0  0  0  0
   -5.4342   18.1969  -13.0415 O   0  0  0  0  0  0  0  0  0  0  0  0
 29 30  1  0  0  0
 30 28  1  0  0  0
 28 27  1  0  0  0
 27  1  1  0  0  0
  1  7  1  0  0  0
  1  2  1  0  0  0
  2  3  2  0  0  0
  2  4  1  0  0  0
  4 16  1  0  0  0
  4  5  2  0  0  0
  5  6  1  0  0  0
  5  8  1  0  0  0
  6  7  2  0  0  0
  7 18  1  0  0  0
 18 23  1  0  0  0
 18 19  2  0  0  0
 19 20  1  0  0  0
 20 21  2  0  0  0
 21 24  1  0  0  0
 21 22  1  0  0  0
 24 25  1  0  0  0
 24 26  2  0  0  0
 22 23  2  0  0  0
  8  9  1  0  0  0
  8 10  1  0  0  0
 10 15  2  0  0  0
 10 11  1  0  0  0
 11 12  2  0  0  0
 12 13  1  0  0  0
 13 14  2  0  0  0
 14 15  1  0  0  0
 15 16  1  0  0  0
 16 17  2  0  0  0
M  CHG 1  24   1
M  CHG 1  25  -1
M  END
> <minimizedAffinity>
-8.22306

$$$$
ZINC000006126672


 30 31  0  0  0  0  0  0  0  0999 V2000
   -9.7976   16.6582   -2.3208 C   0  0  0  0  0  0  0  0  0  0  0  0
   -8.4490   16.5007   -1.8754 O   0  0  0  0  0  0  0  0  0  0  0  0
   -8.1220   15.1719   -1.4636 C   0  0  0  0  0  0  0  0  0  0  0  0
   -8.2968   14.2152   -2.6461 C   0  0  0  0  0  0  0  0  0  0  0  0
   -9.7370   14.3082   -3.1594 C   0  0  0  0  0  0  0  0  0  0  0  0
  -10.0401   15.7613   -3.5376 C   0  0  0  0  0  0  0  0  0  0  0  0
   -6.6700   15.1294   -0.9830 C   0  0  0  0  0  0  0  0  0  0  0  0
   -6.2524   16.4749   -0.5670 N   0  0  0  0  0  0  0  0  0  0  0  0
  -10.1277   16.8376   -4.2652 H   0  0  0  0  0  0  0  0  0  0  0  0
  -10.1277   16.8376   -4.2652 H   0  0  0  0  0  0  0  0  0  0  0  0
  -10.1277   16.8376   -4.2652 H   0  0  0  0  0  0  0  0  0  0  0  0
   -9.1618   16.1749   -4.6347 N   0  0  0  0  0  0  0  0  0  0  0  0
   -9.6912   16.6559   -5.7770 C   0  0  0  0  0  0  0  0  0  0  0  0
  -10.8974   16.7464   -5.8969 O   0  0  0  0  0  0  0  0  0  0  0  0
  -11.3966   17.4875   -3.5973 H   0  0  0  0  0  0  0  0  0  0  0  0
   -8.8048   17.0734   -6.8842 C   0  0  0  0  0  0  0  0  0  0  0  0
   -9.2697   17.9579   -7.8588 C   0  0  0  0  0  0  0  0  0  0  0  0
   -8.4372   18.3438   -8.8890 C   0  0  0  0  0  0  0  0  0  0  0  0
   -7.1444   17.8559   -8.9576 C   0  0  0  0  0  0  0  0  0  0  0  0
   -6.6775   16.9784   -7.9950 C   0  0  0  0  0  0  0  0  0  0  0  0
   -7.4976   16.5894   -6.9561 C   0  0  0  0  0  0  0  0  0  0  0  0
   -8.9843   18.9124   -2.2712 C   0  0  0  0  0  0  0  0  0  0  0  0
  -10.0242   18.0222   -2.6817 O   0  0  0  0  0  0  0  0  0  0  0  0
   -9.8900   13.4716   -4.3078 O   0  0  0  0  0  0  0  0  0  0  0  0
  -10.8129   12.3961   -4.1245 C   0  0  0  0  0  0  0  0  0  0  0  0
   -8.0248   12.8778   -2.2224 O   0  0  0  0  0  0  0  0  0  0  0  0
   -6.9845   12.1595   -3.0699 S   0  0  0  0  0  0  0  0  0  0  0  0
   -5.6732   11.7164   -1.8974 C   0  0  0  0  0  0  0  0  0  0  0  0
   -7.6536   10.9946   -3.5332 O   0  0  0  0  0  0  0  0  0  0  0  0
   -6.5268   13.1516   -3.9784 O   0  0  0  0  0  0  0  0  0  0  0  0
 22 23  1  0  0  0
 23  1  1  0  0  0
  1  6  1  0  0  0
  1  2  1  0  0  0
  2  3  1  0  0  0
  3  7  1  0  0  0
  3  4  1  0  0  0
  7  8  1  0  0  0
  4 26  1  0  0  0
  4  5  1  0  0  0
 26 27  1  0  0  0
 27 28  1  0  0  0
 27 29  2  0  0  0
 27 30  2  0  0  0
  5 24  1  0  0  0
  5  6  1  0  0  0
 24 25  1  0  0  0
  6 12  1  0  0  0
 12 13  1  0  0  0
 13 14  2  0  0  0
 13 16  1  0  0  0
 16 21  1  0  0  0
 16 17  2  0  0  0
 17 18  1  0  0  0
 18 19  2  0  0  0
 19 20  1  0  0  0
 20 21  2  0  0  0
  8  9  1  0  0  0
  8 10  1  0  0  0
  8 11  1  0  0  0
 12 15  1  0  0  0
M  CHG 1   8   1
M  END
> <minimizedAffinity>
-5.18577

$$$$
ZINC000067286422


 34 36  0  0  0  0  0  0  0  0999 V2000
   -8.9229   17.4114   -7.3850 C   0  0  0  0  0  0  0  0  0  0  0  0
   -7.7492   16.9446   -7.8628 C   0  0  0  0  0  0  0  0  0  0  0  0
   -7.1713   15.6999   -7.2205 C   0  0  0  0  0  0  0  0  0  0  0  0
   -7.9426   15.0975   -6.1202 N   0  0  0  0  0  0  0  0  0  0  0  0
   -9.1012   15.6808   -5.7545 C   0  0  0  0  0  0  0  0  0  0  0  0
   -9.7451   15.1914   -4.8470 O   0  0  0  0  0  0  0  0  0  0  0  0
   -9.5632   16.7852   -6.3542 N   0  0  0  0  0  0  0  0  0  0  0  0
  -15.8914   16.4381   -8.9743 H   0  0  0  0  0  0  0  0  0  0  0  0
  -15.8914   16.4381   -8.9743 H   0  0  0  0  0  0  0  0  0  0  0  0
   -7.0046   14.6570   -8.2955 C   0  0  0  0  0  0  0  0  0  0  0  0
   -8.0801   14.3045   -9.0892 C   0  0  0  0  0  0  0  0  0  0  0  0
   -7.9272   13.3479  -10.0753 C   0  0  0  0  0  0  0  0  0  0  0  0
   -6.6988   12.7440  -10.2679 C   0  0  0  0  0  0  0  0  0  0  0  0
   -5.6230   13.0974   -9.4751 C   0  0  0  0  0  0  0  0  0  0  0  0
   -5.7749   14.0568   -8.4915 C   0  0  0  0  0  0  0  0  0  0  0  0
   -6.5352   11.7192  -11.3235 N   0  0  0  0  0  0  0  0  0  0  0  0
   -7.4501   10.9571  -11.5793 O   0  0  0  0  0  0  0  0  0  0  0  0
   -5.4857   11.6383  -11.9362 O   0  0  0  0  0  0  0  0  0  0  0  0
   -7.0818   17.5958   -8.9266 C   0  0  0  0  0  0  0  0  0  0  0  0
   -6.2239   18.4254   -8.6895 O   0  0  0  0  0  0  0  0  0  0  0  0
   -7.3965   17.2968  -10.2042 O   0  0  0  0  0  0  0  0  0  0  0  0
   -6.5061   17.7662  -11.2186 C   0  0  0  0  0  0  0  0  0  0  0  0
   -5.6464   16.6042  -11.7203 C   0  0  0  0  0  0  0  0  0  0  0  0
   -9.5329   18.6470   -7.9954 C   0  0  0  0  0  0  0  0  0  0  0  0
   -9.8077   22.2820   -5.8554 N   0  0  0  0  0  0  0  0  0  0  0  0
   -9.6364   21.0408   -5.0889 C   0  0  0  0  0  0  0  0  0  0  0  0
  -10.0439   19.8463   -5.9543 C   0  0  0  0  0  0  0  0  0  0  0  0
   -9.2100   19.8143   -7.1642 N   0  0  0  0  0  0  0  0  0  0  0  0
   -9.3521   21.0612   -7.9292 C   0  0  0  0  0  0  0  0  0  0  0  0
   -8.9500   22.2455   -7.0473 C   0  0  0  0  0  0  0  0  0  0  0  0
  -10.4754   25.3361   -8.7927 H   0  0  0  0  0  0  0  0  0  0  0  0
   -9.4336   23.4297   -5.0184 C   0  0  0  0  0  0  0  0  0  0  0  0
   -9.6410   25.7183   -5.8433 C   0  0  0  0  0  0  0  0  0  0  0  0
   -9.0041   24.5749   -5.8988 C   0  0  0  0  0  0  0  0  0  0  0  0
 33 34  2  0  0  0
 34 32  1  0  0  0
 32 25  1  0  0  0
 25 30  1  0  0  0
 25 26  1  0  0  0
 26 27  1  0  0  0
 27 28  1  0  0  0
 28 24  1  0  0  0
 28 29  1  0  0  0
 24  1  1  0  0  0
  1  7  1  0  0  0
  1  2  2  0  0  0
  2 19  1  0  0  0
  2  3  1  0  0  0
 19 20  2  0  0  0
 19 21  1  0  0  0
 21 22  1  0  0  0
 22 23  1  0  0  0
  3 10  1  0  0  0
  3  4  1  0  0  0
 10 15  1  0  0  0
 10 11  2  0  0  0
 11 12  1  0  0  0
 12 13  2  0  0  0
 13 16  1  0  0  0
 13 14  1  0  0  0
 16 17  1  0  0  0
 16 18  2  0  0  0
 14 15  2  0  0  0
  4  5  1  0  0  0
  5  6  2  0  0  0
  5  7  1  0  0  0
 29 30  1  0  0  0
 25 31  1  0  0  0
  4  8  1  0  0  0
  7  9  1  0  0  0
M  CHG 1  16   1
M  CHG 1  17  -1
M  CHG 1  25   1
M  END
> <minimizedAffinity>
-6.90339

$$$$
ZINC000671535812


 25 27  0  0  0  0  0  0  0  0999 V2000
   -7.4591   17.0561  -10.9492 N   0  0  0  0  0  0  0  0  0  0  0  0
   -6.6725   16.4795  -11.8795 C   0  0  0  0  0  0  0  0  0  0  0  0
   -5.8817   17.1522  -12.5064 O   0  0  0  0  0  0  0  0  0  0  0  0
  -10.5515   21.2007   -8.4613 H   0  0  0  0  0  0  0  0  0  0  0  0
   -6.7756   14.9989  -12.1406 C   0  0  0  0  0  0  0  0  0  0  0  0
   -8.2481   14.5796  -12.1248 C   0  0  0  0  0  0  0  0  0  0  0  0
   -8.3777   13.1383  -12.6346 C   0  0  0  0  0  0  0  0  0  0  0  0
   -7.3876   12.2818  -11.8905 C   0  0  0  0  0  0  0  0  0  0  0  0
   -6.3371   12.7698  -11.1856 C   0  0  0  0  0  0  0  0  0  0  0  0
   -6.0124   14.2336  -11.0516 C   0  0  0  0  0  0  0  0  0  0  0  0
   -5.6973   11.7060  -10.6706 N   0  0  0  0  0  0  0  0  0  0  0  0
   -6.3257   10.6426  -11.0464 N   0  0  0  0  0  0  0  0  0  0  0  0
   -7.3407   10.9583  -11.7775 N   0  0  0  0  0  0  0  0  0  0  0  0
   -1.4797   20.8851  -10.2533 H   0  0  0  0  0  0  0  0  0  0  0  0
   -7.3588   18.4954  -10.6954 C   0  0  0  0  0  0  0  0  0  0  0  0
   -7.9997   18.8209   -9.3447 C   0  0  0  0  0  0  0  0  0  0  0  0
   -7.4527   17.8700   -8.2782 C   0  0  0  0  0  0  0  0  0  0  0  0
   -8.8614   15.0359   -8.4398 C   0  0  0  0  0  0  0  0  0  0  0  0
   -9.2070   16.1418   -7.4761 C   0  0  0  0  0  0  0  0  0  0  0  0
  -10.1385   16.0965   -6.5585 N   0  0  0  0  0  0  0  0  0  0  0  0
  -10.1407   17.3200   -5.8763 N   0  0  0  0  0  0  0  0  0  0  0  0
  -11.0294   17.6893   -4.7717 C   0  0  0  0  0  0  0  0  0  0  0  0
   -9.1797   18.0985   -6.4163 C   0  0  0  0  0  0  0  0  0  0  0  0
   -8.8294   19.5011   -5.9913 C   0  0  0  0  0  0  0  0  0  0  0  0
   -8.5832   17.3917   -7.4042 C   0  0  0  0  0  0  0  0  0  0  0  0
 18 19  1  0  0  0
 19 25  1  0  0  0
 19 20  2  0  0  0
 20 21  1  0  0  0
 21 22  1  0  0  0
 21 23  1  0  0  0
 23 24  1  0  0  0
 23 25  2  0  0  0
 25 17  1  0  0  0
 17 16  1  0  0  0
 16 15  1  0  0  0
 15  1  1  0  0  0
  1  2  1  0  0  0
  2  3  2  0  0  0
  2  5  1  0  0  0
  5 10  1  0  0  0
  5  6  1  0  0  0
  6  7  1  0  0  0
  7  8  1  0  0  0
  8 13  1  0  0  0
  8  9  2  0  0  0
  9 10  1  0  0  0
  9 11  1  0  0  0
 11 12  1  0  0  0
 12 13  2  0  0  0
  1  4  1  0  0  0
 11 14  1  0  0  0
M  END
> <minimizedAffinity>
-8.16944

$$$$
ZINC000585132190


 25 27  0  0  0  0  0  0  0  0999 V2000
   -7.8658   14.9629   -9.2537 N   0  0  0  0  0  0  0  0  0  0  0  0
   -8.3167   15.0676   -7.9880 C   0  0  0  0  0  0  0  0  0  0  0  0
   -9.1999   14.3344   -7.5963 O   0  0  0  0  0  0  0  0  0  0  0  0
   -7.7627   14.0487  -11.5323 H   0  0  0  0  0  0  0  0  0  0  0  0
   -7.7236   16.0956   -7.0594 C   0  0  0  0  0  0  0  0  0  0  0  0
   -6.7545   16.9899   -7.8500 C   0  0  0  0  0  0  0  0  0  0  0  0
   -7.5436   17.7351   -8.8215 N   0  0  0  0  0  0  0  0  0  0  0  0
   -6.7992   18.6727   -9.6740 C   0  0  0  0  0  0  0  0  0  0  0  0
   -7.9011   19.6377  -10.1911 C   0  0  0  0  0  0  0  0  0  0  0  0
   -9.0304   19.5576   -9.1304 C   0  0  0  0  0  0  0  0  0  0  0  0
   -8.4702   18.6174   -8.0585 C   0  0  0  0  0  0  0  0  0  0  0  0
   -9.5059   17.7453   -7.3663 C   0  0  0  0  0  0  0  0  0  0  0  0
   -8.7758   16.8654   -6.4803 O   0  0  0  0  0  0  0  0  0  0  0  0
   -6.9945   12.2132   -9.9909 H   0  0  0  0  0  0  0  0  0  0  0  0
   -8.4423   13.9635  -10.1565 C   0  0  0  0  0  0  0  0  0  0  0  0
   -7.8253   12.4802  -12.0700 C   0  0  0  0  0  0  0  0  0  0  0  0
   -7.5599   13.8294  -11.3992 C   0  0  0  0  0  0  0  0  0  0  0  0
   -7.8627   14.8842  -12.3146 O   0  0  0  0  0  0  0  0  0  0  0  0
   -6.9334   15.8659  -12.4540 C   0  0  0  0  0  0  0  0  0  0  0  0
   -5.6694   15.7090  -11.9041 C   0  0  0  0  0  0  0  0  0  0  0  0
   -4.7254   16.7079  -12.0464 C   0  0  0  0  0  0  0  0  0  0  0  0
   -5.0387   17.8641  -12.7356 C   0  0  0  0  0  0  0  0  0  0  0  0
   -6.3000   18.0244  -13.2855 C   0  0  0  0  0  0  0  0  0  0  0  0
   -6.6044   19.1554  -13.9590 F   0  0  0  0  0  0  0  0  0  0  0  0
   -7.2457   17.0238  -13.1509 C   0  0  0  0  0  0  0  0  0  0  0  0
 16 17  1  0  0  0
 17 15  1  0  0  0
 17 18  1  0  0  0
 15  1  1  0  0  0
  1  2  1  0  0  0
  2  3  2  0  0  0
  2  5  1  0  0  0
  5 13  1  0  0  0
  5  6  1  0  0  0
  6  7  1  0  0  0
  7 11  1  0  0  0
  7  8  1  0  0  0
  8  9  1  0  0  0
  9 10  1  0  0  0
 10 11  1  0  0  0
 11 12  1  0  0  0
 12 13  1  0  0  0
 18 19  1  0  0  0
 19 25  1  0  0  0
 19 20  2  0  0  0
 20 21  1  0  0  0
 21 22  2  0  0  0
 22 23  1  0  0  0
 23 24  1  0  0  0
 23 25  2  0  0  0
  1  4  1  0  0  0
  7 14  1  0  0  0
M  CHG 1   7   1
M  END
> <minimizedAffinity>
-7.42250

$$$$
ZINC000067560089


 26 28  0  0  0  0  0  0  0  0999 V2000
   -8.4616   18.5438   -7.8695 N   0  0  0  0  0  0  0  0  0  0  0  0
   -8.6163   18.9280   -6.4431 C   0  0  0  0  0  0  0  0  0  0  0  0
   -8.8356   17.5691   -5.7318 C   0  0  0  0  0  0  0  0  0  0  0  0
   -9.7001   16.7841   -6.7450 C   0  0  0  0  0  0  0  0  0  0  0  0
   -9.4398   17.4598   -8.1052 C   0  0  0  0  0  0  0  0  0  0  0  0
   -6.5740   22.5425   -7.8623 H   0  0  0  0  0  0  0  0  0  0  0  0
   -8.7577   19.6910   -8.7380 C   0  0  0  0  0  0  0  0  0  0  0  0
   -5.8428   17.9331  -12.5258 C   0  0  0  0  0  0  0  0  0  0  0  0
   -6.8999   18.6959  -11.7696 C   0  0  0  0  0  0  0  0  0  0  0  0
   -7.7544   19.5407  -12.2873 N   0  0  0  0  0  0  0  0  0  0  0  0
   -8.5637   20.0325  -11.2551 N   0  0  0  0  0  0  0  0  0  0  0  0
   -8.1649   19.4540  -10.1030 C   0  0  0  0  0  0  0  0  0  0  0  0
   -7.1408   18.6186  -10.3939 C   0  0  0  0  0  0  0  0  0  0  0  0
   -6.8963   18.6963  -11.7731 H   0  0  0  0  0  0  0  0  0  0  0  0
   -9.2670   15.3174   -6.7883 C   0  0  0  0  0  0  0  0  0  0  0  0
   -8.8018   14.9852   -8.1371 N   0  0  0  0  0  0  0  0  0  0  0  0
   -7.5310   14.5803   -8.3311 C   0  0  0  0  0  0  0  0  0  0  0  0
   -6.7724   14.4911   -7.3890 O   0  0  0  0  0  0  0  0  0  0  0  0
  -16.2508   13.6934   -3.7558 H   0  0  0  0  0  0  0  0  0  0  0  0
   -7.0525   14.2387   -9.7187 C   0  0  0  0  0  0  0  0  0  0  0  0
   -7.8347   15.0293  -10.7322 C   0  0  0  0  0  0  0  0  0  0  0  0
   -8.0594   14.2499  -12.0420 C   0  0  0  0  0  0  0  0  0  0  0  0
   -6.8088   13.4742  -12.4978 C   0  0  0  0  0  0  0  0  0  0  0  0
   -5.5433   14.2701  -12.3261 C   0  0  0  0  0  0  0  0  0  0  0  0
   -4.9188   13.9092  -10.9627 C   0  0  0  0  0  0  0  0  0  0  0  0
   -5.5606   14.6048   -9.8570 C   0  0  0  0  0  0  0  0  0  0  0  0
  8  9  1  0  0  0
  9 13  1  0  0  0
  9 10  2  0  0  0
 10 11  1  0  0  0
 11 12  1  0  0  0
 12  7  1  0  0  0
 12 13  2  0  0  0
  7  1  1  0  0  0
  1  5  1  0  0  0
  1  2  1  0  0  0
  2  3  1  0  0  0
  3  4  1  0  0  0
  4 15  1  0  0  0
  4  5  1  0  0  0
 15 16  1  0  0  0
 16 17  1  0  0  0
 17 18  2  0  0  0
 17 20  1  0  0  0
 20 26  1  0  0  0
 20 21  1  0  0  0
 21 22  1  0  0  0
 22 23  1  0  0  0
 23 24  1  0  0  0
 24 25  1  0  0  0
 25 26  1  0  0  0
 11 14  1  0  0  0
  1  6  1  0  0  0
 16 19  1  0  0  0
M  CHG 1   1   1
M  END
> <minimizedAffinity>
-7.37460

$$$$
ZINC000095626587


 30 32  0  0  0  0  0  0  0  0999 V2000
   -7.7318   15.2126  -10.8863 C   0  0  0  0  0  0  0  0  0  0  0  0
   -8.6999   16.9849   -5.4923 C   0  0  0  0  0  0  0  0  0  0  0  0
   -8.4588   16.5087   -6.9016 C   0  0  0  0  0  0  0  0  0  0  0  0
   -9.1927   15.4913   -7.3904 C   0  0  0  0  0  0  0  0  0  0  0  0
   -8.9733   15.0390   -8.7108 C   0  0  0  0  0  0  0  0  0  0  0  0
   -9.7013   14.0176   -9.2204 O   0  0  0  0  0  0  0  0  0  0  0  0
   -8.0007   15.6605   -9.4727 C   0  0  0  0  0  0  0  0  0  0  0  0
   -7.2703   16.7134   -8.9081 C   0  0  0  0  0  0  0  0  0  0  0  0
   -6.4077   17.2756   -9.5626 O   0  0  0  0  0  0  0  0  0  0  0  0
   -7.5212   17.1093   -7.6484 O   0  0  0  0  0  0  0  0  0  0  0  0
   -4.4356   17.2754  -12.6186 H   0  0  0  0  0  0  0  0  0  0  0  0
   -7.0194   13.8848  -10.8657 C   0  0  0  0  0  0  0  0  0  0  0  0
   -6.1027   13.5937   -9.8718 C   0  0  0  0  0  0  0  0  0  0  0  0
   -5.8287   14.4955   -8.8999 O   0  0  0  0  0  0  0  0  0  0  0  0
   -5.4582   12.3366   -9.8903 C   0  0  0  0  0  0  0  0  0  0  0  0
   -5.7444   11.4529  -10.8649 C   0  0  0  0  0  0  0  0  0  0  0  0
   -5.0525   10.1141  -10.8767 C   0  0  0  0  0  0  0  0  0  0  0  0
   -6.6343   11.7427  -11.8250 O   0  0  0  0  0  0  0  0  0  0  0  0
   -7.2784   12.9222  -11.8491 C   0  0  0  0  0  0  0  0  0  0  0  0
   -8.0834   13.1582  -12.7349 O   0  0  0  0  0  0  0  0  0  0  0  0
   -4.8948   14.9851  -14.0518 H   0  0  0  0  0  0  0  0  0  0  0  0
   -6.8697   16.2345  -11.5816 C   0  0  0  0  0  0  0  0  0  0  0  0
   -5.5017   16.0506  -11.6533 C   0  0  0  0  0  0  0  0  0  0  0  0
   -4.7107   16.9881  -12.2912 C   0  0  0  0  0  0  0  0  0  0  0  0
   -5.2880   18.1090  -12.8576 C   0  0  0  0  0  0  0  0  0  0  0  0
   -6.6565   18.2924  -12.7867 C   0  0  0  0  0  0  0  0  0  0  0  0
   -7.4477   17.3530  -12.1527 C   0  0  0  0  0  0  0  0  0  0  0  0
   -7.2746   19.4930  -13.3928 N   0  0  0  0  0  0  0  0  0  0  0  0
   -7.9512   20.2405  -12.7095 O   0  0  0  0  0  0  0  0  0  0  0  0
   -7.1067   19.7334  -14.5751 O   0  0  0  0  0  0  0  0  0  0  0  0
  2  3  1  0  0  0
  3 10  1  0  0  0
  3  4  2  0  0  0
  4  5  1  0  0  0
  5  6  1  0  0  0
  5  7  2  0  0  0
  7  1  1  0  0  0
  7  8  1  0  0  0
  1 22  1  0  0  0
  1 12  1  0  0  0
 22 27  1  0  0  0
 22 23  2  0  0  0
 23 24  1  0  0  0
 24 25  2  0  0  0
 25 26  1  0  0  0
 26 28  1  0  0  0
 26 27  2  0  0  0
 28 29  1  0  0  0
 28 30  2  0  0  0
 12 19  1  0  0  0
 12 13  2  0  0  0
 13 14  1  0  0  0
 13 15  1  0  0  0
 15 16  2  0  0  0
 16 17  1  0  0  0
 16 18  1  0  0  0
 18 19  1  0  0  0
 19 20  2  0  0  0
  8  9  2  0  0  0
  8 10  1  0  0  0
  6 11  1  0  0  0
 14 21  1  0  0  0
M  CHG 1  28   1
M  CHG 1  29  -1
M  END
> <minimizedAffinity>
-8.31292

$$$$
ZINC000006684814


 26 27  0  0  0  0  0  0  0  0999 V2000
   -8.0597   18.5350   -8.8256 C   0  0  0  0  0  0  0  0  0  0  0  0
   -7.9059   18.8639  -10.1746 C   0  0  0  0  0  0  0  0  0  0  0  0
   -7.0625   18.1206  -10.9736 C   0  0  0  0  0  0  0  0  0  0  0  0
   -6.3657   17.0460  -10.4411 C   0  0  0  0  0  0  0  0  0  0  0  0
   -6.5137   16.7123   -9.0961 C   0  0  0  0  0  0  0  0  0  0  0  0
   -7.3531   17.4552   -8.2881 C   0  0  0  0  0  0  0  0  0  0  0  0
   -8.5611   19.7248   -6.7995 N   0  0  0  0  0  0  0  0  0  0  0  0
   -8.9600   19.3283   -7.9697 C   0  0  0  0  0  0  0  0  0  0  0  0
   -9.7577   21.6999   -5.9199 C   0  0  0  0  0  0  0  0  0  0  0  0
  -10.6255   21.9267   -4.9861 N   0  0  0  0  0  0  0  0  0  0  0  0
  -10.9116   20.7101   -4.3516 N   0  0  0  0  0  0  0  0  0  0  0  0
  -10.1714   19.7577   -4.9562 C   0  0  0  0  0  0  0  0  0  0  0  0
  -10.1467   18.0916   -4.5630 S   0  0  0  0  0  0  0  0  0  0  0  0
   -9.4592   20.3582   -5.9307 N   0  0  0  0  0  0  0  0  0  0  0  0
  -10.0919   18.2833   -4.5474 H   0  0  0  0  0  0  0  0  0  0  0  0
   -8.6824   23.9316   -6.0299 C   0  0  0  0  0  0  0  0  0  0  0  0
   -9.1755   22.7356   -6.8469 C   0  0  0  0  0  0  0  0  0  0  0  0
   -5.8280   15.6586   -8.5775 O   0  0  0  0  0  0  0  0  0  0  0  0
   -5.3257   15.8027   -7.2475 C   0  0  0  0  0  0  0  0  0  0  0  0
   -5.5358   16.3169  -11.2330 O   0  0  0  0  0  0  0  0  0  0  0  0
   -6.1447   15.5196  -12.2508 C   0  0  0  0  0  0  0  0  0  0  0  0
   -5.4771   14.1694  -12.2978 C   0  0  0  0  0  0  0  0  0  0  0  0
   -4.8692   13.6795  -11.1992 N   0  0  0  0  0  0  0  0  0  0  0  0
   -5.4871   13.5234  -13.3243 O   0  0  0  0  0  0  0  0  0  0  0  0
   -9.4740   23.7502  -10.9015 H   0  0  0  0  0  0  0  0  0  0  0  0
   -9.4740   23.7502  -10.9015 H   0  0  0  0  0  0  0  0  0  0  0  0
 16 17  1  0  0  0
 17  9  1  0  0  0
  9 14  1  0  0  0
  9 10  2  0  0  0
 10 11  1  0  0  0
 11 12  1  0  0  0
 12 13  2  0  0  0
 12 14  1  0  0  0
 14  7  1  0  0  0
  7  8  2  0  0  0
  8  1  1  0  0  0
  1  6  1  0  0  0
  1  2  2  0  0  0
  2  3  1  0  0  0
  3  4  2  0  0  0
  4 20  1  0  0  0
  4  5  1  0  0  0
 20 21  1  0  0  0
 21 22  1  0  0  0
 22 23  1  0  0  0
 22 24  2  0  0  0
  5 18  1  0  0  0
  5  6  2  0  0  0
 18 19  1  0  0  0
 11 15  1  0  0  0
 23 25  1  0  0  0
 23 26  1  0  0  0
M  END
> <minimizedAffinity>
-6.89927

$$$$
ZINC000067650705


 28 30  0  0  0  0  0  0  0  0999 V2000
   -7.4826   16.6512   -8.9003 N   0  0  0  0  0  0  0  0  0  0  0  0
   -8.0999   15.3670   -8.5448 C   0  0  0  0  0  0  0  0  0  0  0  0
   -9.4960   15.6130   -7.9684 C   0  0  0  0  0  0  0  0  0  0  0  0
   -9.3815   16.5058   -6.7297 C   0  0  0  0  0  0  0  0  0  0  0  0
   -8.6918   17.8168   -7.1172 C   0  0  0  0  0  0  0  0  0  0  0  0
   -7.3189   17.5070   -7.7182 C   0  0  0  0  0  0  0  0  0  0  0  0
   -6.1985   16.4466   -9.5840 C   0  0  0  0  0  0  0  0  0  0  0  0
   -6.5254   16.1746  -12.0911 N   0  0  0  0  0  0  0  0  0  0  0  0
   -6.5456   17.0072  -13.1774 C   0  0  0  0  0  0  0  0  0  0  0  0
   -6.3276   18.2539  -12.7169 C   0  0  0  0  0  0  0  0  0  0  0  0
   -6.1783   18.1843  -11.3857 N   0  0  0  0  0  0  0  0  0  0  0  0
   -6.3006   16.9426  -11.0033 C   0  0  0  0  0  0  0  0  0  0  0  0
   -8.2054   14.4069  -12.2752 C   0  0  0  0  0  0  0  0  0  0  0  0
   -6.7180   14.7224  -12.1053 C   0  0  0  0  0  0  0  0  0  0  0  0
   -8.5202   18.6908   -5.8732 C   0  0  0  0  0  0  0  0  0  0  0  0
   -9.1107   20.0092   -6.1174 N   0  0  0  0  0  0  0  0  0  0  0  0
   -9.5927   20.7330   -5.0877 C   0  0  0  0  0  0  0  0  0  0  0  0
   -9.5376   20.2928   -3.9590 O   0  0  0  0  0  0  0  0  0  0  0  0
   -7.6516   13.1649   -9.5531 H   0  0  0  0  0  0  0  0  0  0  0  0
  -10.2000   22.0891   -5.3390 C   0  0  0  0  0  0  0  0  0  0  0  0
  -11.6555   21.9668   -5.4958 N   0  0  0  0  0  0  0  0  0  0  0  0
   -9.8715   23.0401   -4.1697 C   0  0  0  0  0  0  0  0  0  0  0  0
   -8.6175   23.8125   -4.6492 C   0  0  0  0  0  0  0  0  0  0  0  0
   -8.9035   24.0267   -6.1563 C   0  0  0  0  0  0  0  0  0  0  0  0
   -9.5845   22.7163   -6.6021 C   0  0  0  0  0  0  0  0  0  0  0  0
  -10.5146   13.7471    0.5097 H   0  0  0  0  0  0  0  0  0  0  0  0
  -10.5146   13.7471    0.5097 H   0  0  0  0  0  0  0  0  0  0  0  0
  -10.5146   13.7471    0.5097 H   0  0  0  0  0  0  0  0  0  0  0  0
 13 14  1  0  0  0
 14  8  1  0  0  0
  8 12  1  0  0  0
  8  9  1  0  0  0
  9 10  2  0  0  0
 10 11  1  0  0  0
 11 12  2  0  0  0
 12  7  1  0  0  0
  7  1  1  0  0  0
  1  6  1  0  0  0
  1  2  1  0  0  0
  2  3  1  0  0  0
  3  4  1  0  0  0
  4  5  1  0  0  0
  5 15  1  0  0  0
  5  6  1  0  0  0
 15 16  1  0  0  0
 16 17  1  0  0  0
 17 18  2  0  0  0
 17 20  1  0  0  0
 20 25  1  0  0  0
 20 21  1  0  0  0
 20 22  1  0  0  0
 22 23  1  0  0  0
 23 24  1  0  0  0
 24 25  1  0  0  0
 16 19  1  0  0  0
 21 26  1  0  0  0
 21 27  1  0  0  0
 21 28  1  0  0  0
M  CHG 1  21   1
M  END
> <minimizedAffinity>
-6.63862

$$$$
ZINC000031773065


 29 31  0  0  0  0  0  0  0  0999 V2000
   -8.0216   17.5654   -8.9580 C   0  0  0  0  0  0  0  0  0  0  0  0
   -8.1973   18.8434   -9.4542 C   0  0  0  0  0  0  0  0  0  0  0  0
   -7.7290   19.1661  -10.7144 C   0  0  0  0  0  0  0  0  0  0  0  0
   -7.0848   18.2109  -11.4778 C   0  0  0  0  0  0  0  0  0  0  0  0
   -6.9083   16.9327  -10.9812 C   0  0  0  0  0  0  0  0  0  0  0  0
   -7.3727   16.6113   -9.7197 C   0  0  0  0  0  0  0  0  0  0  0  0
   -8.6185   17.1540   -7.3521 S   0  0  0  0  0  0  0  0  0  0  0  0
   -7.9977   15.9266   -6.9954 O   0  0  0  0  0  0  0  0  0  0  0  0
  -10.0281   17.3296   -7.3908 O   0  0  0  0  0  0  0  0  0  0  0  0
   -8.0338   18.2956   -6.3046 N   0  0  0  0  0  0  0  0  0  0  0  0
  -11.4214   22.2863   -4.3401 H   0  0  0  0  0  0  0  0  0  0  0  0
  -10.5578   21.2656   -4.8414 C   0  0  0  0  0  0  0  0  0  0  0  0
  -10.2224   20.1723   -4.0370 C   0  0  0  0  0  0  0  0  0  0  0  0
   -9.3877   19.1921   -4.5240 C   0  0  0  0  0  0  0  0  0  0  0  0
   -8.8776   19.2885   -5.8154 C   0  0  0  0  0  0  0  0  0  0  0  0
   -9.2099   20.3752   -6.6189 C   0  0  0  0  0  0  0  0  0  0  0  0
  -10.0484   21.3562   -6.1401 C   0  0  0  0  0  0  0  0  0  0  0  0
  -12.1145   23.0976   -3.9387 N   0  0  0  0  0  0  0  0  0  0  0  0
  -11.4260   22.2872   -4.3380 C   0  0  0  0  0  0  0  0  0  0  0  0
   -6.0876   15.7148  -11.9547 S   0  0  0  0  0  0  0  0  0  0  0  0
   -6.6492   15.8657  -13.2512 O   0  0  0  0  0  0  0  0  0  0  0  0
   -4.7061   15.9530  -11.7224 O   0  0  0  0  0  0  0  0  0  0  0  0
   -6.5929   14.1340  -11.2221 C   0  0  0  0  0  0  0  0  0  0  0  0
   -7.2664   13.2590  -12.2938 C   0  0  0  0  0  0  0  0  0  0  0  0
   -7.3664   11.8299  -11.7010 C   0  0  0  0  0  0  0  0  0  0  0  0
   -5.7317   11.6150  -10.9002 S   0  0  0  0  0  0  0  0  0  0  0  0
   -5.9076   11.0135   -9.6249 O   0  0  0  0  0  0  0  0  0  0  0  0
   -4.8222   11.0458  -11.8318 O   0  0  0  0  0  0  0  0  0  0  0  0
   -5.3525   13.3900  -10.6885 C   0  0  0  0  0  0  0  0  0  0  0  0
 18 19  3  0  0  0
 19 12  1  0  0  0
 12 17  2  0  0  0
 12 13  1  0  0  0
 13 14  2  0  0  0
 14 15  1  0  0  0
 15 10  1  0  0  0
 15 16  2  0  0  0
 10  7  1  0  0  0
  7  8  2  0  0  0
  7  9  2  0  0  0
  7  1  1  0  0  0
  1  6  1  0  0  0
  1  2  2  0  0  0
  2  3  1  0  0  0
  3  4  2  0  0  0
  4  5  1  0  0  0
  5 20  1  0  0  0
  5  6  2  0  0  0
 20 21  2  0  0  0
 20 22  2  0  0  0
 20 23  1  0  0  0
 23 29  1  0  0  0
 23 24  1  0  0  0
 24 25  1  0  0  0
 25 26  1  0  0  0
 26 27  2  0  0  0
 26 28  2  0  0  0
 26 29  1  0  0  0
 16 17  1  0  0  0
 10 11  1  0  0  0
M  END
> <minimizedAffinity>
-8.56246

$$$$
ZINC000229904773


 33 37  0  0  0  0  0  0  0  0999 V2000
   -9.3356   21.0570   -6.5568 O   0  0  0  0  0  0  0  0  0  0  0  0
   -9.5307   20.4563   -5.5189 C   0  0  0  0  0  0  0  0  0  0  0  0
  -10.2282   21.0522   -4.5401 N   0  0  0  0  0  0  0  0  0  0  0  0
  -10.4745   20.4410   -3.3724 C   0  0  0  0  0  0  0  0  0  0  0  0
  -11.1125   21.0266   -2.5241 O   0  0  0  0  0  0  0  0  0  0  0  0
   -9.9828   19.0513   -3.0862 C   0  0  0  0  0  0  0  0  0  0  0  0
  -11.1765   18.1390   -2.7743 C   0  0  0  0  0  0  0  0  0  0  0  0
  -10.7517   16.9199   -1.9962 C   0  0  0  0  0  0  0  0  0  0  0  0
  -11.6934   15.9275   -1.7746 C   0  0  0  0  0  0  0  0  0  0  0  0
  -11.3698   14.7965   -1.0528 C   0  0  0  0  0  0  0  0  0  0  0  0
  -10.0953   14.6434   -0.5387 C   0  0  0  0  0  0  0  0  0  0  0  0
   -9.1463   15.6202   -0.7581 C   0  0  0  0  0  0  0  0  0  0  0  0
   -9.4634   16.7572   -1.4945 C   0  0  0  0  0  0  0  0  0  0  0  0
   -8.4965   17.7019   -1.7519 N   0  0  0  0  0  0  0  0  0  0  0  0
   -7.3963   17.8651   -0.7952 C   0  0  0  0  0  0  0  0  0  0  0  0
   -6.7519   19.2143   -1.2153 C   0  0  0  0  0  0  0  0  0  0  0  0
   -7.8778   19.9815   -1.9552 C   0  0  0  0  0  0  0  0  0  0  0  0
   -9.0954   19.0571   -1.8463 C   0  0  0  0  0  0  0  0  0  0  0  0
   -9.2240   18.5021   -4.2596 C   0  0  0  0  0  0  0  0  0  0  0  0
   -8.7620   17.3833   -4.1911 O   0  0  0  0  0  0  0  0  0  0  0  0
   -9.0477   19.2120   -5.3832 N   0  0  0  0  0  0  0  0  0  0  0  0
   -9.3356   21.0574   -6.5518 H   0  0  0  0  0  0  0  0  0  0  0  0
  -12.3879   13.7459   -0.8291 N   0  0  0  0  0  0  0  0  0  0  0  0
  -12.2449   12.6434   -1.3271 O   0  0  0  0  0  0  0  0  0  0  0  0
  -13.3687   13.9834   -0.1471 O   0  0  0  0  0  0  0  0  0  0  0  0
   -8.2961   18.6161   -6.4906 C   0  0  0  0  0  0  0  0  0  0  0  0
   -9.2673   18.1777   -7.5885 C   0  0  0  0  0  0  0  0  0  0  0  0
   -8.6589   18.4579   -8.9385 C   0  0  0  0  0  0  0  0  0  0  0  0
   -9.0513   19.5730   -9.6553 C   0  0  0  0  0  0  0  0  0  0  0  0
   -8.4932   19.8301  -10.8937 C   0  0  0  0  0  0  0  0  0  0  0  0
   -7.5426   18.9724  -11.4150 C   0  0  0  0  0  0  0  0  0  0  0  0
   -7.1497   17.8579  -10.6978 C   0  0  0  0  0  0  0  0  0  0  0  0
   -7.7046   17.6031   -9.4575 C   0  0  0  0  0  0  0  0  0  0  0  0
  1  2  2  0  0  0
  2 21  1  0  0  0
  2  3  1  0  0  0
  3  4  1  0  0  0
  4  5  2  0  0  0
  6  4  1  0  0  0
  6 18  1  0  0  0
  6  7  1  0  0  0
  6 19  1  0  0  0
  7  8  1  0  0  0
  8 13  2  0  0  0
  8  9  1  0  0  0
  9 10  2  0  0  0
 10 23  1  0  0  0
 10 11  1  0  0  0
 23 24  1  0  0  0
 23 25  2  0  0  0
 11 12  2  0  0  0
 12 13  1  0  0  0
 13 14  1  0  0  0
 14 18  1  0  0  0
 14 15  1  0  0  0
 15 16  1  0  0  0
 16 17  1  0  0  0
 17 18  1  0  0  0
 19 20  2  0  0  0
 19 21  1  0  0  0
 21 26  1  0  0  0
 26 27  1  0  0  0
 27 28  1  0  0  0
 28 33  1  0  0  0
 28 29  2  0  0  0
 29 30  1  0  0  0
 30 31  2  0  0  0
 31 32  1  0  0  0
 32 33  2  0  0  0
  3 22  1  0  0  0
M  CHG 1  23   1
M  CHG 1  24  -1
M  END
> <minimizedAffinity>
-7.45378

$$$$
ZINC000247380851


 29 28  0  0  0  0  0  0  0  0999 V2000
   -8.0686   15.7075   -6.7650 C   0  0  0  0  0  0  0  0  0  0  0  0
   -8.7943   14.1850   -8.4234 O   0  0  0  0  0  0  0  0  0  0  0  0
   -8.9675   15.2686   -7.8920 C   0  0  0  0  0  0  0  0  0  0  0  0
   -9.8712   15.9949   -8.2692 O   0  0  0  0  0  0  0  0  0  0  0  0
   -8.7946   14.1874   -8.4190 H   0  0  0  0  0  0  0  0  0  0  0  0
   -8.8634   15.8849   -5.5471 N   0  0  0  0  0  0  0  0  0  0  0  0
   -8.7098   15.0351   -4.5124 C   0  0  0  0  0  0  0  0  0  0  0  0
   -7.9136   14.1236   -4.5893 O   0  0  0  0  0  0  0  0  0  0  0  0
   -8.0863   14.0148   -8.4106 H   0  0  0  0  0  0  0  0  0  0  0  0
   -9.5274   15.2177   -3.2596 C   0  0  0  0  0  0  0  0  0  0  0  0
   -9.6744   13.9590   -2.5992 O   0  0  0  0  0  0  0  0  0  0  0  0
  -10.9597   13.3589   -2.7717 C   0  0  0  0  0  0  0  0  0  0  0  0
  -10.7975   11.9846   -3.4243 C   0  0  0  0  0  0  0  0  0  0  0  0
  -10.7313   12.1361   -4.8437 O   0  0  0  0  0  0  0  0  0  0  0  0
  -17.7640   16.6344   -2.6370 H   0  0  0  0  0  0  0  0  0  0  0  0
   -7.3979   17.0322   -7.1338 C   0  0  0  0  0  0  0  0  0  0  0  0
   -6.3955   16.7986   -8.2658 C   0  0  0  0  0  0  0  0  0  0  0  0
   -6.6598   17.7964   -9.3951 C   0  0  0  0  0  0  0  0  0  0  0  0
   -6.3809   17.1273  -10.7426 C   0  0  0  0  0  0  0  0  0  0  0  0
   -7.3845   16.0889  -10.9891 N   0  0  0  0  0  0  0  0  0  0  0  0
   -7.2394   15.2453  -12.0300 C   0  0  0  0  0  0  0  0  0  0  0  0
   -6.2781   15.3457  -12.7627 O   0  0  0  0  0  0  0  0  0  0  0  0
   -4.9608   21.2452   -5.4276 H   0  0  0  0  0  0  0  0  0  0  0  0
   -8.2717   14.1771  -12.2838 C   0  0  0  0  0  0  0  0  0  0  0  0
   -8.2806   13.2544  -11.1927 O   0  0  0  0  0  0  0  0  0  0  0  0
   -7.4996   12.0792  -11.4189 C   0  0  0  0  0  0  0  0  0  0  0  0
   -6.4331   11.9580  -10.3286 C   0  0  0  0  0  0  0  0  0  0  0  0
   -7.0637   11.9301   -9.0465 O   0  0  0  0  0  0  0  0  0  0  0  0
  -17.1604   19.6702  -14.9023 H   0  0  0  0  0  0  0  0  0  0  0  0
  2  3  2  0  0  0
  3  4  1  0  0  0
  3  1  1  0  0  0
  1 16  1  0  0  0
  1  6  1  0  0  0
 16 17  1  0  0  0
 17 18  1  0  0  0
 18 19  1  0  0  0
 19 20  1  0  0  0
 20 21  1  0  0  0
 21 22  2  0  0  0
 21 24  1  0  0  0
 24 25  1  0  0  0
 25 26  1  0  0  0
 26 27  1  0  0  0
 27 28  1  0  0  0
  6  7  1  0  0  0
  7  8  2  0  0  0
  7 10  1  0  0  0
 10 11  1  0  0  0
 11 12  1  0  0  0
 12 13  1  0  0  0
 13 14  1  0  0  0
  4  5  1  0  0  0
 20 23  1  0  0  0
 28 29  1  0  0  0
  6  9  1  0  0  0
 14 15  1  0  0  0
M  END
> <minimizedAffinity>
-5.37423

$$$$
ZINC000034846687


 30 31  0  0  0  0  0  0  0  0999 V2000
   -5.8871   15.9753  -10.2056 C   0  0  0  0  0  0  0  0  0  0  0  0
   -5.5781   16.5974  -11.5041 N   0  0  0  0  0  0  0  0  0  0  0  0
   -6.2050   17.7448  -11.8309 C   0  0  0  0  0  0  0  0  0  0  0  0
   -5.9571   18.2660  -12.9008 O   0  0  0  0  0  0  0  0  0  0  0  0
   -7.0924   18.3291  -11.0161 N   0  0  0  0  0  0  0  0  0  0  0  0
   -7.7226   19.5750  -11.4596 C   0  0  0  0  0  0  0  0  0  0  0  0
   -7.4432   17.8286   -9.7949 C   0  0  0  0  0  0  0  0  0  0  0  0
   -8.4539   18.5654   -8.9544 C   0  0  0  0  0  0  0  0  0  0  0  0
   -6.8995   16.6843   -9.3290 C   0  0  0  0  0  0  0  0  0  0  0  0
   -6.2140   11.3075   -8.4539 H   0  0  0  0  0  0  0  0  0  0  0  0
   -7.7746   13.0774  -11.7260 C   0  0  0  0  0  0  0  0  0  0  0  0
   -7.3061   14.3583  -11.4841 C   0  0  0  0  0  0  0  0  0  0  0  0
   -6.3952   14.5810  -10.4677 C   0  0  0  0  0  0  0  0  0  0  0  0
   -5.9502   13.5276   -9.6915 C   0  0  0  0  0  0  0  0  0  0  0  0
   -6.4135   12.2463   -9.9280 C   0  0  0  0  0  0  0  0  0  0  0  0
   -7.3303   12.0174  -10.9408 C   0  0  0  0  0  0  0  0  0  0  0  0
   -7.7873   10.7580  -11.1745 O   0  0  0  0  0  0  0  0  0  0  0  0
   -6.6622   11.4358   -8.2676 H   0  0  0  0  0  0  0  0  0  0  0  0
   -5.9346   11.1206   -9.0948 N   0  0  0  0  0  0  0  0  0  0  0  0
   -6.3030   11.0191   -7.9383 O   0  0  0  0  0  0  0  0  0  0  0  0
   -5.1722   10.2956   -9.5656 O   0  0  0  0  0  0  0  0  0  0  0  0
   -9.5909   13.9109  -13.0153 C   0  0  0  0  0  0  0  0  0  0  0  0
   -8.6708   12.8568  -12.7249 O   0  0  0  0  0  0  0  0  0  0  0  0
   -7.2620   16.1643   -8.0645 C   0  0  0  0  0  0  0  0  0  0  0  0
   -6.5146   16.3000   -7.1138 O   0  0  0  0  0  0  0  0  0  0  0  0
   -8.4366   15.5178   -7.9123 O   0  0  0  0  0  0  0  0  0  0  0  0
   -8.9342   15.3813   -6.5797 C   0  0  0  0  0  0  0  0  0  0  0  0
   -9.9102   16.5210   -6.2805 C   0  0  0  0  0  0  0  0  0  0  0  0
   -9.4683   17.2966   -4.7013 S   0  0  0  0  0  0  0  0  0  0  0  0
   -8.7098   18.8626   -5.2140 C   0  0  0  0  0  0  0  0  0  0  0  0
 22 23  1  0  0  0
 23 11  1  0  0  0
 11 16  2  0  0  0
 11 12  1  0  0  0
 12 13  2  0  0  0
 13  1  1  0  0  0
 13 14  1  0  0  0
  1  9  1  0  0  0
  1  2  1  0  0  0
  2  3  1  0  0  0
  3  4  2  0  0  0
  3  5  1  0  0  0
  5  6  1  0  0  0
  5  7  1  0  0  0
  7  8  1  0  0  0
  7  9  2  0  0  0
  9 24  1  0  0  0
 24 25  2  0  0  0
 24 26  1  0  0  0
 26 27  1  0  0  0
 27 28  1  0  0  0
 28 29  1  0  0  0
 29 30  1  0  0  0
 14 15  2  0  0  0
 15 19  1  0  0  0
 15 16  1  0  0  0
 19 20  1  0  0  0
 19 21  2  0  0  0
 16 17  1  0  0  0
  2 10  1  0  0  0
 17 18  1  0  0  0
M  CHG 1  19   1
M  CHG 1  20  -1
M  END
> <minimizedAffinity>
-7.58123

$$$$
ZINC000071910008


 25 27  0  0  0  0  0  0  0  0999 V2000
   -7.3285   14.2854   -9.7607 S   0  0  0  0  0  0  0  0  0  0  0  0
   -8.3129   15.2958   -8.7048 C   0  0  0  0  0  0  0  0  0  0  0  0
   -8.1406   16.5804   -8.4846 N   0  0  0  0  0  0  0  0  0  0  0  0
   -9.0743   17.0202   -7.6280 C   0  0  0  0  0  0  0  0  0  0  0  0
   -9.8522   16.0154   -7.2942 N   0  0  0  0  0  0  0  0  0  0  0  0
   -9.3812   14.8868   -7.9841 N   0  0  0  0  0  0  0  0  0  0  0  0
   -6.8877   16.5131  -11.1893 H   0  0  0  0  0  0  0  0  0  0  0  0
   -9.2072   18.4140   -7.1378 C   0  0  0  0  0  0  0  0  0  0  0  0
   -9.0841   19.4753   -8.0316 C   0  0  0  0  0  0  0  0  0  0  0  0
   -9.2104   20.7705   -7.5595 C   0  0  0  0  0  0  0  0  0  0  0  0
   -9.4560   20.9615   -6.2073 C   0  0  0  0  0  0  0  0  0  0  0  0
   -9.5668   19.8617   -5.3762 C   0  0  0  0  0  0  0  0  0  0  0  0
   -9.4477   18.6394   -5.8525 N   0  0  0  0  0  0  0  0  0  0  0  0
   -7.8875   14.8808  -11.3760 C   0  0  0  0  0  0  0  0  0  0  0  0
   -6.9085   15.8982  -11.9028 C   0  0  0  0  0  0  0  0  0  0  0  0
   -5.6467   15.9958  -11.3466 C   0  0  0  0  0  0  0  0  0  0  0  0
   -4.7487   16.9290  -11.8297 C   0  0  0  0  0  0  0  0  0  0  0  0
   -5.1122   17.7644  -12.8693 C   0  0  0  0  0  0  0  0  0  0  0  0
   -6.3737   17.6662  -13.4262 C   0  0  0  0  0  0  0  0  0  0  0  0
   -7.2702   16.7300  -12.9459 C   0  0  0  0  0  0  0  0  0  0  0  0
   -9.1472   13.4223  -12.9269 N   0  0  0  0  0  0  0  0  0  0  0  0
   -7.9735   13.7224  -12.3361 C   0  0  0  0  0  0  0  0  0  0  0  0
   -6.9865   13.0602  -12.5774 O   0  0  0  0  0  0  0  0  0  0  0  0
   -8.0322   13.7323  -12.3420 H   0  0  0  0  0  0  0  0  0  0  0  0
   -8.0322   13.7323  -12.3420 H   0  0  0  0  0  0  0  0  0  0  0  0
 21 22  1  0  0  0
 22 23  2  0  0  0
 22 14  1  0  0  0
 14  1  1  0  0  0
 14 15  1  0  0  0
  1  2  1  0  0  0
  2  6  1  0  0  0
  2  3  2  0  0  0
  3  4  1  0  0  0
  4  8  1  0  0  0
  4  5  2  0  0  0
  8 13  1  0  0  0
  8  9  2  0  0  0
  9 10  1  0  0  0
 10 11  2  0  0  0
 11 12  1  0  0  0
 12 13  2  0  0  0
  5  6  1  0  0  0
 15 20  1  0  0  0
 15 16  2  0  0  0
 16 17  1  0  0  0
 17 18  2  0  0  0
 18 19  1  0  0  0
 19 20  2  0  0  0
 21 24  1  0  0  0
 21 25  1  0  0  0
  6  7  1  0  0  0
M  END
> <minimizedAffinity>
-7.16710

$$$$
ZINC000023424954


 26 28  0  0  0  0  0  0  0  0999 V2000
   -8.9413   17.0473   -6.5998 N   0  0  0  0  0  0  0  0  0  0  0  0
   -7.5494   17.3627   -6.9472 C   0  0  0  0  0  0  0  0  0  0  0  0
   -6.7988   16.0650   -7.2645 C   0  0  0  0  0  0  0  0  0  0  0  0
   -7.5472   15.3332   -8.2979 N   0  0  0  0  0  0  0  0  0  0  0  0
   -8.9830   15.0986   -8.0824 C   0  0  0  0  0  0  0  0  0  0  0  0
   -9.6475   16.4344   -7.7328 C   0  0  0  0  0  0  0  0  0  0  0  0
   -6.7931   14.7876   -9.6676 S   0  0  0  0  0  0  0  0  0  0  0  0
   -5.4484   14.5100   -9.3016 O   0  0  0  0  0  0  0  0  0  0  0  0
   -7.6581   13.8178  -10.2427 O   0  0  0  0  0  0  0  0  0  0  0  0
   -6.7323   16.1349  -10.8014 C   0  0  0  0  0  0  0  0  0  0  0  0
   -7.1800   17.3819  -10.4178 C   0  0  0  0  0  0  0  0  0  0  0  0
   -7.1331   18.4411  -11.3070 C   0  0  0  0  0  0  0  0  0  0  0  0
   -6.6381   18.2577  -12.5857 C   0  0  0  0  0  0  0  0  0  0  0  0
   -6.1870   17.0158  -12.9827 C   0  0  0  0  0  0  0  0  0  0  0  0
   -6.2256   15.9441  -12.0887 C   0  0  0  0  0  0  0  0  0  0  0  0
   -5.7591   14.6523  -12.4938 C   0  0  0  0  0  0  0  0  0  0  0  0
   -5.3891   13.6275  -12.8153 N   0  0  0  0  0  0  0  0  0  0  0  0
   -9.6489   18.2431   -6.1230 C   0  0  0  0  0  0  0  0  0  0  0  0
   -9.4969   18.4215   -1.1592 C   0  0  0  0  0  0  0  0  0  0  0  0
   -9.9846   18.1300   -2.5095 N   0  0  0  0  0  0  0  0  0  0  0  0
  -11.2387   17.4428   -2.8631 C   0  0  0  0  0  0  0  0  0  0  0  0
  -11.2195   17.4239   -4.3787 C   0  0  0  0  0  0  0  0  0  0  0  0
  -12.0598   16.9545   -5.1158 O   0  0  0  0  0  0  0  0  0  0  0  0
  -10.0746   18.0382   -4.7363 N   0  0  0  0  0  0  0  0  0  0  0  0
   -9.3774   18.4429   -3.6685 C   0  0  0  0  0  0  0  0  0  0  0  0
   -8.3108   19.0213   -3.7376 O   0  0  0  0  0  0  0  0  0  0  0  0
 19 20  1  0  0  0
 20 25  1  0  0  0
 20 21  1  0  0  0
 21 22  1  0  0  0
 22 23  2  0  0  0
 22 24  1  0  0  0
 24 18  1  0  0  0
 24 25  1  0  0  0
 18  1  1  0  0  0
  1  6  1  0  0  0
  1  2  1  0  0  0
  2  3  1  0  0  0
  3  4  1  0  0  0
  4  7  1  0  0  0
  4  5  1  0  0  0
  7  8  2  0  0  0
  7  9  2  0  0  0
  7 10  1  0  0  0
 10 15  1  0  0  0
 10 11  2  0  0  0
 11 12  1  0  0  0
 12 13  2  0  0  0
 13 14  1  0  0  0
 14 15  2  0  0  0
 15 16  1  0  0  0
 16 17  3  0  0  0
  5  6  1  0  0  0
 25 26  2  0  0  0
M  END
> <minimizedAffinity>
-7.80724

$$$$
ZINC000120536560


 25 26  0  0  0  0  0  0  0  0999 V2000
   -8.5414   16.9467   -8.4208 N   0  0  0  0  0  0  0  0  0  0  0  0
   -7.2937   16.6093   -8.8029 C   0  0  0  0  0  0  0  0  0  0  0  0
   -6.3466   17.2868   -8.4529 O   0  0  0  0  0  0  0  0  0  0  0  0
   -7.0959   15.5210   -9.5729 N   0  0  0  0  0  0  0  0  0  0  0  0
  -11.1197   17.7883   -7.8059 H   0  0  0  0  0  0  0  0  0  0  0  0
  -11.1197   17.7883   -7.8059 H   0  0  0  0  0  0  0  0  0  0  0  0
   -9.0786   19.3075   -8.4125 C   0  0  0  0  0  0  0  0  0  0  0  0
   -9.2957   20.4850   -7.7167 C   0  0  0  0  0  0  0  0  0  0  0  0
   -9.1918   20.5035   -6.3378 C   0  0  0  0  0  0  0  0  0  0  0  0
   -8.8708   19.3465   -5.6491 C   0  0  0  0  0  0  0  0  0  0  0  0
   -8.7704   19.3692   -4.3021 F   0  0  0  0  0  0  0  0  0  0  0  0
   -8.6530   18.1659   -6.3384 C   0  0  0  0  0  0  0  0  0  0  0  0
   -8.7611   18.1408   -7.7207 C   0  0  0  0  0  0  0  0  0  0  0  0
   -8.1871   20.0060  -10.5041 C   0  0  0  0  0  0  0  0  0  0  0  0
   -9.1807   19.2889   -9.7688 O   0  0  0  0  0  0  0  0  0  0  0  0
   -5.7398   15.1543   -9.9883 C   0  0  0  0  0  0  0  0  0  0  0  0
   -5.3404   13.8372   -9.3199 C   0  0  0  0  0  0  0  0  0  0  0  0
   -5.6996   14.9874  -11.5086 C   0  0  0  0  0  0  0  0  0  0  0  0
   -5.6817   16.3449  -12.1627 C   0  0  0  0  0  0  0  0  0  0  0  0
   -4.7007   17.2090  -12.1099 N   0  0  0  0  0  0  0  0  0  0  0  0
   -5.0750   18.3415  -12.8446 N   0  0  0  0  0  0  0  0  0  0  0  0
   -6.3121   18.1259  -13.3386 C   0  0  0  0  0  0  0  0  0  0  0  0
   -7.1074   19.0812  -14.1907 C   0  0  0  0  0  0  0  0  0  0  0  0
   -6.7084   16.8962  -12.9364 C   0  0  0  0  0  0  0  0  0  0  0  0
    1.2970   16.6678  -10.8453 H   0  0  0  0  0  0  0  0  0  0  0  0
 14 15  1  0  0  0
 15  7  1  0  0  0
  7 13  2  0  0  0
  7  8  1  0  0  0
  8  9  2  0  0  0
  9 10  1  0  0  0
 10 11  1  0  0  0
 10 12  2  0  0  0
 12 13  1  0  0  0
 13  1  1  0  0  0
  1  2  1  0  0  0
  2  3  2  0  0  0
  2  4  1  0  0  0
  4 16  1  0  0  0
 16 17  1  0  0  0
 16 18  1  0  0  0
 18 19  1  0  0  0
 19 24  1  0  0  0
 19 20  2  0  0  0
 20 21  1  0  0  0
 21 22  1  0  0  0
 22 23  1  0  0  0
 22 24  2  0  0  0
  1  5  1  0  0  0
  4  6  1  0  0  0
 21 25  1  0  0  0
M  END
> <minimizedAffinity>
-6.99565

$$$$
ZINC000095534671


 23 24  0  0  0  0  0  0  0  0999 V2000
   -6.5683   13.8090  -11.4172 C   0  0  0  0  0  0  0  0  0  0  0  0
   -6.9958   15.0430  -11.4967 N   0  0  0  0  0  0  0  0  0  0  0  0
   -6.2248   15.7353  -12.3342 C   0  0  0  0  0  0  0  0  0  0  0  0
   -5.2918   14.9481  -12.8014 N   0  0  0  0  0  0  0  0  0  0  0  0
   -5.4919   13.6885  -12.2134 N   0  0  0  0  0  0  0  0  0  0  0  0
   -7.1707   12.7177  -10.5713 H   0  0  0  0  0  0  0  0  0  0  0  0
   -7.5217   11.5204  -11.4648 C   0  0  0  0  0  0  0  0  0  0  0  0
   -7.1732   12.7154  -10.5751 C   0  0  0  0  0  0  0  0  0  0  0  0
   -6.2087   12.2972   -9.5490 N   0  0  0  0  0  0  0  0  0  0  0  0
   -7.1753   12.7140  -10.5794 H   0  0  0  0  0  0  0  0  0  0  0  0
   -7.1753   12.7140  -10.5794 H   0  0  0  0  0  0  0  0  0  0  0  0
   -7.1753   12.7140  -10.5794 H   0  0  0  0  0  0  0  0  0  0  0  0
   -6.3996   17.1904  -12.6853 C   0  0  0  0  0  0  0  0  0  0  0  0
   -5.9779   17.9997  -11.5857 O   0  0  0  0  0  0  0  0  0  0  0  0
   -6.9501   18.4941  -10.7749 C   0  0  0  0  0  0  0  0  0  0  0  0
   -7.8820   19.3915  -11.2752 C   0  0  0  0  0  0  0  0  0  0  0  0
   -8.8699   19.8922  -10.4490 C   0  0  0  0  0  0  0  0  0  0  0  0
   -8.9298   19.4997   -9.1249 C   0  0  0  0  0  0  0  0  0  0  0  0
   -8.0015   18.6055   -8.6236 C   0  0  0  0  0  0  0  0  0  0  0  0
   -7.0156   18.0977   -9.4469 C   0  0  0  0  0  0  0  0  0  0  0  0
   -8.0683   18.1878   -7.2053 N   0  0  0  0  0  0  0  0  0  0  0  0
   -8.5076   18.9526   -6.3652 O   0  0  0  0  0  0  0  0  0  0  0  0
   -7.6839   17.0793   -6.8782 O   0  0  0  0  0  0  0  0  0  0  0  0
  7  8  1  0  0  0
  8  9  1  0  0  0
  8  1  1  0  0  0
  1  5  1  0  0  0
  1  2  2  0  0  0
  2  3  1  0  0  0
  3 13  1  0  0  0
  3  4  2  0  0  0
 13 14  1  0  0  0
 14 15  1  0  0  0
 15 20  1  0  0  0
 15 16  2  0  0  0
 16 17  1  0  0  0
 17 18  2  0  0  0
 18 19  1  0  0  0
 19 21  1  0  0  0
 19 20  2  0  0  0
 21 22  1  0  0  0
 21 23  2  0  0  0
  4  5  1  0  0  0
  9 10  1  0  0  0
  9 11  1  0  0  0
  9 12  1  0  0  0
  5  6  1  0  0  0
M  CHG 1   9   1
M  CHG 1  21   1
M  CHG 1  22  -1
M  END
> <minimizedAffinity>
-6.76037

$$$$
ZINC000042227733


 25 27  0  0  0  0  0  0  0  0999 V2000
   -9.4381   18.4172   -7.3176 N   0  0  0  0  0  0  0  0  0  0  0  0
  -12.0803   20.6875  -12.5224 H   0  0  0  0  0  0  0  0  0  0  0  0
  -12.0803   20.6875  -12.5224 H   0  0  0  0  0  0  0  0  0  0  0  0
   -8.9756   19.6582   -7.9533 C   0  0  0  0  0  0  0  0  0  0  0  0
   -7.2480   18.8101  -11.7190 C   0  0  0  0  0  0  0  0  0  0  0  0
   -6.7808   18.1185  -10.6063 C   0  0  0  0  0  0  0  0  0  0  0  0
   -7.3355   18.3841   -9.3672 C   0  0  0  0  0  0  0  0  0  0  0  0
   -8.3427   19.3360   -9.2825 C   0  0  0  0  0  0  0  0  0  0  0  0
   -8.7581   19.9849  -10.4282 C   0  0  0  0  0  0  0  0  0  0  0  0
   -8.2072   19.7148  -11.5963 N   0  0  0  0  0  0  0  0  0  0  0  0
   -5.7291   17.4682  -13.1358 C   0  0  0  0  0  0  0  0  0  0  0  0
   -6.6992   18.5535  -12.9701 N   0  0  0  0  0  0  0  0  0  0  0  0
   -7.0910   19.3681  -14.1230 C   0  0  0  0  0  0  0  0  0  0  0  0
   -8.6043   18.1285   -6.1431 C   0  0  0  0  0  0  0  0  0  0  0  0
   -9.0637   16.8429   -5.5049 C   0  0  0  0  0  0  0  0  0  0  0  0
   -9.6849   16.7249   -4.3116 C   0  0  0  0  0  0  0  0  0  0  0  0
   -9.9313   15.4145   -4.0966 N   0  0  0  0  0  0  0  0  0  0  0  0
   -9.4462   14.6927   -5.1945 N   0  0  0  0  0  0  0  0  0  0  0  0
   -8.9266   15.5496   -6.0502 C   0  0  0  0  0  0  0  0  0  0  0  0
  -12.8223   21.3518  -11.7239 H   0  0  0  0  0  0  0  0  0  0  0  0
   -8.3019   15.2138   -7.3483 C   0  0  0  0  0  0  0  0  0  0  0  0
   -8.9659   15.0248   -8.5054 C   0  0  0  0  0  0  0  0  0  0  0  0
   -8.1646   14.7205   -9.5873 C   0  0  0  0  0  0  0  0  0  0  0  0
   -6.8567   14.6597   -9.3230 C   0  0  0  0  0  0  0  0  0  0  0  0
   -6.5768   15.0067   -7.6219 S   0  0  0  0  0  0  0  0  0  0  0  0
 11 12  1  0  0  0
 12 13  1  0  0  0
 12  5  1  0  0  0
  5 10  2  0  0  0
  5  6  1  0  0  0
  6  7  2  0  0  0
  7  8  1  0  0  0
  8  4  1  0  0  0
  8  9  2  0  0  0
  4  1  1  0  0  0
  1 14  1  0  0  0
 14 15  1  0  0  0
 15 19  1  0  0  0
 15 16  2  0  0  0
 16 17  1  0  0  0
 17 18  1  0  0  0
 18 19  2  0  0  0
 19 21  1  0  0  0
 21 25  1  0  0  0
 21 22  2  0  0  0
 22 23  1  0  0  0
 23 24  2  0  0  0
 24 25  1  0  0  0
  9 10  1  0  0  0
  1  2  1  0  0  0
  1  3  1  0  0  0
 17 20  1  0  0  0
M  CHG 1   1   1
M  END
> <minimizedAffinity>
-6.58698

$$$$
ZINC000003178128


 26 28  0  0  0  0  0  0  0  0999 V2000
   -9.2494   15.2417   -7.6706 N   0  0  0  0  0  0  0  0  0  0  0  0
   -5.6847   12.7538  -13.4145 H   0  0  0  0  0  0  0  0  0  0  0  0
   -9.4005   16.2018   -6.7127 C   0  0  0  0  0  0  0  0  0  0  0  0
  -10.5068   16.4784   -6.0571 N   0  0  0  0  0  0  0  0  0  0  0  0
  -10.5634   17.4167   -5.1525 C   0  0  0  0  0  0  0  0  0  0  0  0
  -11.5765   17.6855   -4.5367 O   0  0  0  0  0  0  0  0  0  0  0  0
   -9.2494   18.1397   -4.9399 C   0  0  0  0  0  0  0  0  0  0  0  0
   -8.1386   17.2984   -6.1198 S   0  0  0  0  0  0  0  0  0  0  0  0
   -9.3848   19.6038   -5.2701 C   0  0  0  0  0  0  0  0  0  0  0  0
   -9.2606   20.0315   -6.5787 C   0  0  0  0  0  0  0  0  0  0  0  0
   -9.3848   21.3746   -6.8816 C   0  0  0  0  0  0  0  0  0  0  0  0
   -9.6336   22.2898   -5.8759 C   0  0  0  0  0  0  0  0  0  0  0  0
   -9.7587   21.8619   -4.5674 C   0  0  0  0  0  0  0  0  0  0  0  0
   -9.6388   20.5184   -4.2651 C   0  0  0  0  0  0  0  0  0  0  0  0
   -8.3439   16.2036   -9.5998 C   0  0  0  0  0  0  0  0  0  0  0  0
   -8.2281   15.3567   -8.6228 N   0  0  0  0  0  0  0  0  0  0  0  0
   -5.7274   15.3024  -12.1389 C   0  0  0  0  0  0  0  0  0  0  0  0
   -5.2460   16.5572  -12.4877 C   0  0  0  0  0  0  0  0  0  0  0  0
   -5.7696   17.6936  -11.9004 C   0  0  0  0  0  0  0  0  0  0  0  0
   -6.7787   17.5879  -10.9583 C   0  0  0  0  0  0  0  0  0  0  0  0
   -7.2696   16.3246  -10.6013 C   0  0  0  0  0  0  0  0  0  0  0  0
   -6.7399   15.1815  -11.2035 C   0  0  0  0  0  0  0  0  0  0  0  0
   -4.9415   13.0740  -11.8695 C   0  0  0  0  0  0  0  0  0  0  0  0
   -5.2063   14.1899  -12.7221 O   0  0  0  0  0  0  0  0  0  0  0  0
   -7.2923   18.7061  -10.3818 O   0  0  0  0  0  0  0  0  0  0  0  0
   -8.0495   19.5798  -11.2218 C   0  0  0  0  0  0  0  0  0  0  0  0
 23 24  1  0  0  0
 24 17  1  0  0  0
 17 22  2  0  0  0
 17 18  1  0  0  0
 18 19  2  0  0  0
 19 20  1  0  0  0
 20 25  1  0  0  0
 20 21  2  0  0  0
 25 26  1  0  0  0
 21 15  1  0  0  0
 21 22  1  0  0  0
 15 16  2  0  0  0
 16  1  1  0  0  0
  1  3  1  0  0  0
  3  8  1  0  0  0
  3  4  2  0  0  0
  4  5  1  0  0  0
  5  6  2  0  0  0
  5  7  1  0  0  0
  7  9  1  0  0  0
  7  8  1  0  0  0
  9 14  1  0  0  0
  9 10  2  0  0  0
 10 11  1  0  0  0
 11 12  2  0  0  0
 12 13  1  0  0  0
 13 14  2  0  0  0
  1  2  1  0  0  0
M  END
> <minimizedAffinity>
-7.56586

$$$$
ZINC000095468684


 28 31  0  0  0  0  0  0  0  0999 V2000
   -6.8162   17.8896   -9.6402 N   0  0  0  0  0  0  0  0  0  0  0  0
   -6.0316   16.7175   -9.2286 C   0  0  0  0  0  0  0  0  0  0  0  0
   -6.3697   15.5469  -10.1573 C   0  0  0  0  0  0  0  0  0  0  0  0
   -6.1479   15.9732  -11.6103 C   0  0  0  0  0  0  0  0  0  0  0  0
   -4.7889   16.3790  -11.7851 O   0  0  0  0  0  0  0  0  0  0  0  0
   -7.0764   17.1418  -11.9483 C   0  0  0  0  0  0  0  0  0  0  0  0
   -6.7510   18.3267  -11.0414 C   0  0  0  0  0  0  0  0  0  0  0  0
  -10.5784   20.8242   -3.2338 H   0  0  0  0  0  0  0  0  0  0  0  0
  -10.2865   20.7719   -5.4494 C   0  0  0  0  0  0  0  0  0  0  0  0
   -9.7745   19.6842   -4.7582 C   0  0  0  0  0  0  0  0  0  0  0  0
   -8.9374   18.7923   -5.3805 C   0  0  0  0  0  0  0  0  0  0  0  0
   -8.5849   18.9685   -6.7349 C   0  0  0  0  0  0  0  0  0  0  0  0
   -7.7842   18.2043   -7.5047 N   0  0  0  0  0  0  0  0  0  0  0  0
   -7.6039   18.5636   -8.7293 C   0  0  0  0  0  0  0  0  0  0  0  0
   -8.5035   20.0339   -9.0746 S   0  0  0  0  0  0  0  0  0  0  0  0
   -9.1086   20.0691   -7.4202 C   0  0  0  0  0  0  0  0  0  0  0  0
   -9.9601   20.9611   -6.7744 C   0  0  0  0  0  0  0  0  0  0  0  0
  -10.7574   22.4447   -3.8817 O   0  0  0  0  0  0  0  0  0  0  0  0
  -11.1884   21.7259   -4.7655 N   0  0  0  0  0  0  0  0  0  0  0  0
  -12.3603   21.7954   -5.0900 O   0  0  0  0  0  0  0  0  0  0  0  0
   -6.4517   14.7959  -12.5389 C   0  0  0  0  0  0  0  0  0  0  0  0
   -6.5326   13.5588  -11.7509 N   0  0  0  0  0  0  0  0  0  0  0  0
   -5.2874   12.7948  -11.9090 C   0  0  0  0  0  0  0  0  0  0  0  0
   -5.3741   11.5066  -11.0869 C   0  0  0  0  0  0  0  0  0  0  0  0
   -6.5116   10.7512  -11.5127 O   0  0  0  0  0  0  0  0  0  0  0  0
   -7.7475   11.4622  -11.4002 C   0  0  0  0  0  0  0  0  0  0  0  0
   -7.6654   12.7505  -12.2227 C   0  0  0  0  0  0  0  0  0  0  0  0
   -9.7695   25.6312   -9.1415 H   0  0  0  0  0  0  0  0  0  0  0  0
 18 19  1  0  0  0
 19 20  2  0  0  0
 19  9  1  0  0  0
  9 17  2  0  0  0
  9 10  1  0  0  0
 10 11  2  0  0  0
 11 12  1  0  0  0
 12 16  2  0  0  0
 12 13  1  0  0  0
 13 14  2  0  0  0
 14  1  1  0  0  0
 14 15  1  0  0  0
  1  7  1  0  0  0
  1  2  1  0  0  0
  2  3  1  0  0  0
  3  4  1  0  0  0
  4  5  1  0  0  0
  4 21  1  0  0  0
  4  6  1  0  0  0
 21 22  1  0  0  0
 22 27  1  0  0  0
 22 23  1  0  0  0
 23 24  1  0  0  0
 24 25  1  0  0  0
 25 26  1  0  0  0
 26 27  1  0  0  0
  6  7  1  0  0  0
 15 16  1  0  0  0
 16 17  1  0  0  0
  5  8  1  0  0  0
 22 28  1  0  0  0
M  CHG 1  18  -1
M  CHG 1  19   1
M  CHG 1  22   1
M  END
> <minimizedAffinity>
-7.91001

$$$$
ZINC000073242988


 30 30  0  0  0  0  0  0  0  0999 V2000
   -7.9544   15.4973   -7.6573 S   0  0  0  0  0  0  0  0  0  0  0  0
   -6.7921   15.2376   -6.8821 O   0  0  0  0  0  0  0  0  0  0  0  0
   -8.8481   14.4780   -8.0833 O   0  0  0  0  0  0  0  0  0  0  0  0
   -7.4061   16.3199   -9.1157 C   0  0  0  0  0  0  0  0  0  0  0  0
   -7.8760   17.5675   -9.4083 C   0  0  0  0  0  0  0  0  0  0  0  0
   -7.4450   18.2268  -10.5647 C   0  0  0  0  0  0  0  0  0  0  0  0
   -6.5258   17.5995  -11.4238 C   0  0  0  0  0  0  0  0  0  0  0  0
   -6.0554   16.3329  -11.1162 C   0  0  0  0  0  0  0  0  0  0  0  0
   -6.4903   15.6949   -9.9612 C   0  0  0  0  0  0  0  0  0  0  0  0
   -5.8917   14.0846   -9.5697 S   0  0  0  0  0  0  0  0  0  0  0  0
   -8.4782   14.7337   -5.5104 H   0  0  0  0  0  0  0  0  0  0  0  0
   -7.9381   19.5357  -10.8718 C   0  0  0  0  0  0  0  0  0  0  0  0
   -8.3292   20.5740  -11.1153 N   0  0  0  0  0  0  0  0  0  0  0  0
   -6.0910   18.2463  -12.5753 N   0  0  0  0  0  0  0  0  0  0  0  0
   -8.2570   14.2543   -5.6963 H   0  0  0  0  0  0  0  0  0  0  0  0
   -6.6147   17.9047  -13.7898 N   0  0  0  0  0  0  0  0  0  0  0  0
   -7.1752   19.0795  -14.4708 C   0  0  0  0  0  0  0  0  0  0  0  0
   -2.2570   12.6911   -7.8436 H   0  0  0  0  0  0  0  0  0  0  0  0
   -9.2664   16.2811   -5.5924 C   0  0  0  0  0  0  0  0  0  0  0  0
   -8.8597   16.5820   -6.7935 N   0  0  0  0  0  0  0  0  0  0  0  0
   -8.8642   15.1050   -5.0049 N   0  0  0  0  0  0  0  0  0  0  0  0
   -7.5274   14.8126   -4.9321 H   0  0  0  0  0  0  0  0  0  0  0  0
  -10.0053   13.8640   -3.3861 C   0  0  0  0  0  0  0  0  0  0  0  0
   -9.7624   14.0933   -4.8167 N   0  0  0  0  0  0  0  0  0  0  0  0
   -8.1541   15.5567   -3.9234 H   0  0  0  0  0  0  0  0  0  0  0  0
  -10.0977   17.1397   -4.9127 N   0  0  0  0  0  0  0  0  0  0  0  0
   -7.0726   15.5227   -6.0701 H   0  0  0  0  0  0  0  0  0  0  0  0
  -11.4461   16.9210   -4.9040 N   0  0  0  0  0  0  0  0  0  0  0  0
  -12.0452   17.3769   -3.6426 C   0  0  0  0  0  0  0  0  0  0  0  0
   -7.2257   16.4298   -6.9992 H   0  0  0  0  0  0  0  0  0  0  0  0
 23 24  1  0  0  0
 24 21  1  0  0  0
 21 19  1  0  0  0
 19 20  2  0  0  0
 19 26  1  0  0  0
 20  1  1  0  0  0
  1  2  2  0  0  0
  1  3  2  0  0  0
  1  4  1  0  0  0
  4  9  2  0  0  0
  4  5  1  0  0  0
  5  6  2  0  0  0
  6 12  1  0  0  0
  6  7  1  0  0  0
 12 13  3  0  0  0
  7 14  1  0  0  0
  7  8  2  0  0  0
 14 16  1  0  0  0
 16 17  1  0  0  0
  8  9  1  0  0  0
  9 10  1  0  0  0
 26 28  1  0  0  0
 28 29  1  0  0  0
 24 25  1  0  0  0
 21 22  1  0  0  0
 14 15  1  0  0  0
 16 18  1  0  0  0
 10 11  1  0  0  0
 26 27  1  0  0  0
 28 30  1  0  0  0
M  END
> <minimizedAffinity>
-6.21807

$$$$
ZINC000103729844


 30 33  0  0  0  0  0  0  0  0999 V2000
   -9.6403   15.5870   -6.1610 N   0  0  0  0  0  0  0  0  0  0  0  0
   -9.4493   16.6076   -5.3328 C   0  0  0  0  0  0  0  0  0  0  0  0
   -9.9920   16.6743   -3.6523 S   0  0  0  0  0  0  0  0  0  0  0  0
   -9.3327   18.3340   -3.3061 C   0  0  0  0  0  0  0  0  0  0  0  0
  -10.4768   19.2583   -2.8498 C   0  0  0  0  0  0  0  0  0  0  0  0
  -10.0347   20.8621   -3.6327 S   0  0  0  0  0  0  0  0  0  0  0  0
  -11.2161   21.5861   -3.9478 O   0  0  0  0  0  0  0  0  0  0  0  0
   -8.9887   21.4840   -2.8989 O   0  0  0  0  0  0  0  0  0  0  0  0
   -9.3544   20.0875   -5.1537 C   0  0  0  0  0  0  0  0  0  0  0  0
   -8.7181   18.7847   -4.6300 C   0  0  0  0  0  0  0  0  0  0  0  0
   -8.8059   17.7514   -5.6417 N   0  0  0  0  0  0  0  0  0  0  0  0
   -8.2410   17.9378   -6.9094 C   0  0  0  0  0  0  0  0  0  0  0  0
   -6.9872   17.4148   -7.1947 C   0  0  0  0  0  0  0  0  0  0  0  0
   -6.4288   17.5995   -8.4451 C   0  0  0  0  0  0  0  0  0  0  0  0
   -7.1178   18.3076   -9.4181 C   0  0  0  0  0  0  0  0  0  0  0  0
   -6.5478   18.4868  -10.6420 O   0  0  0  0  0  0  0  0  0  0  0  0
   -7.4202   18.8794  -11.7072 C   0  0  0  0  0  0  0  0  0  0  0  0
   -8.3205   20.0131  -11.1982 C   0  0  0  0  0  0  0  0  0  0  0  0
   -9.0688   19.5234  -10.0802 O   0  0  0  0  0  0  0  0  0  0  0  0
   -8.3752   18.8299   -9.1363 C   0  0  0  0  0  0  0  0  0  0  0  0
   -8.9367   18.6410   -7.8833 C   0  0  0  0  0  0  0  0  0  0  0  0
   -9.3510   15.7158   -7.4534 C   0  0  0  0  0  0  0  0  0  0  0  0
  -10.0663   16.3858   -8.1725 O   0  0  0  0  0  0  0  0  0  0  0  0
   -8.1366   15.0310   -8.0255 C   0  0  0  0  0  0  0  0  0  0  0  0
   -8.4529   14.5247   -9.4343 C   0  0  0  0  0  0  0  0  0  0  0  0
   -7.1596   14.0757  -10.1172 C   0  0  0  0  0  0  0  0  0  0  0  0
   -7.2024   11.9162   -9.1530 O   0  0  0  0  0  0  0  0  0  0  0  0
   -6.5550   12.9313   -9.3452 C   0  0  0  0  0  0  0  0  0  0  0  0
   -5.4166   13.0186   -8.9172 O   0  0  0  0  0  0  0  0  0  0  0  0
   -6.1563   12.6942   -9.7648 H   0  0  0  0  0  0  0  0  0  0  0  0
 27 28  2  0  0  0
 28 29  1  0  0  0
 28 26  1  0  0  0
 26 25  1  0  0  0
 25 24  1  0  0  0
 24 22  1  0  0  0
 22 23  2  0  0  0
 22  1  1  0  0  0
  1  2  2  0  0  0
  2 11  1  0  0  0
  2  3  1  0  0  0
  3  4  1  0  0  0
  4 10  1  0  0  0
  4  5  1  0  0  0
  5  6  1  0  0  0
  6  7  2  0  0  0
  6  8  2  0  0  0
  6  9  1  0  0  0
  9 10  1  0  0  0
 10 11  1  0  0  0
 11 12  1  0  0  0
 12 21  1  0  0  0
 12 13  2  0  0  0
 13 14  1  0  0  0
 14 15  2  0  0  0
 15 20  1  0  0  0
 15 16  1  0  0  0
 16 17  1  0  0  0
 17 18  1  0  0  0
 18 19  1  0  0  0
 19 20  1  0  0  0
 20 21  2  0  0  0
 29 30  1  0  0  0
M  END
> <minimizedAffinity>
-8.19003

$$$$
ZINC000040399225


 35 38  0  0  0  0  0  0  0  0999 V2000
   -7.0077   18.1416   -9.7690 C   0  0  0  0  0  0  0  0  0  0  0  0
   -7.7615   18.8530  -10.8942 C   0  0  0  0  0  0  0  0  0  0  0  0
   -8.2047   20.2139  -10.4250 C   0  0  0  0  0  0  0  0  0  0  0  0
   -8.1853   21.1498  -11.1957 O   0  0  0  0  0  0  0  0  0  0  0  0
   -8.6211   20.4018   -9.1610 N   0  0  0  0  0  0  0  0  0  0  0  0
   -8.5546   19.3790   -8.2308 C   0  0  0  0  0  0  0  0  0  0  0  0
   -7.7912   18.2542   -8.4890 C   0  0  0  0  0  0  0  0  0  0  0  0
   -7.7521   17.2264   -7.5416 C   0  0  0  0  0  0  0  0  0  0  0  0
   -7.0972   16.2164   -7.7451 O   0  0  0  0  0  0  0  0  0  0  0  0
   -8.4532   17.3738   -6.3969 N   0  0  0  0  0  0  0  0  0  0  0  0
   -9.1635   18.5136   -6.1753 C   0  0  0  0  0  0  0  0  0  0  0  0
   -9.2053   19.4815   -7.0667 N   0  0  0  0  0  0  0  0  0  0  0  0
   -6.9633   16.0609   -9.8622 H   0  0  0  0  0  0  0  0  0  0  0  0
   -6.9633   16.0609   -9.8622 H   0  0  0  0  0  0  0  0  0  0  0  0
   -5.7317   16.1793  -10.0709 O   0  0  0  0  0  0  0  0  0  0  0  0
   -6.8317   16.6875  -10.1236 C   0  0  0  0  0  0  0  0  0  0  0  0
   -7.8976   15.9504  -10.4939 N   0  0  0  0  0  0  0  0  0  0  0  0
   -6.5535   16.2955  -10.6208 H   0  0  0  0  0  0  0  0  0  0  0  0
   -7.7233   14.6222  -10.8981 C   0  0  0  0  0  0  0  0  0  0  0  0
   -8.1556   14.2144  -12.1530 C   0  0  0  0  0  0  0  0  0  0  0  0
   -7.9816   12.9026  -12.5492 C   0  0  0  0  0  0  0  0  0  0  0  0
   -7.3779   11.9960  -11.6978 C   0  0  0  0  0  0  0  0  0  0  0  0
   -6.9462   12.3990  -10.4471 C   0  0  0  0  0  0  0  0  0  0  0  0
   -7.1124   13.7102  -10.0471 C   0  0  0  0  0  0  0  0  0  0  0  0
   -6.2999   11.4252   -9.5388 N   0  0  0  0  0  0  0  0  0  0  0  0
   -5.5067   10.6135   -9.9810 O   0  0  0  0  0  0  0  0  0  0  0  0
   -6.5613   11.4356   -8.3493 O   0  0  0  0  0  0  0  0  0  0  0  0
   -9.8507   18.6568   -4.9977 N   0  0  0  0  0  0  0  0  0  0  0  0
   -5.2231   18.6375   -9.1599 H   0  0  0  0  0  0  0  0  0  0  0  0
   -9.3332   19.4644   -3.9798 C   0  0  0  0  0  0  0  0  0  0  0  0
   -9.7991   20.7625   -3.8166 C   0  0  0  0  0  0  0  0  0  0  0  0
   -9.2863   21.5572   -2.8102 C   0  0  0  0  0  0  0  0  0  0  0  0
   -8.3097   21.0619   -1.9658 C   0  0  0  0  0  0  0  0  0  0  0  0
   -7.8436   19.7698   -2.1255 C   0  0  0  0  0  0  0  0  0  0  0  0
   -8.3564   18.9680   -3.1264 C   0  0  0  0  0  0  0  0  0  0  0  0
 15 16  2  0  0  0
 16 17  1  0  0  0
 16  1  1  0  0  0
 17 19  1  0  0  0
 19 24  1  0  0  0
 19 20  2  0  0  0
 20 21  1  0  0  0
 21 22  2  0  0  0
 22 23  1  0  0  0
 23 25  1  0  0  0
 23 24  2  0  0  0
 25 26  1  0  0  0
 25 27  2  0  0  0
  1  7  1  0  0  0
  1  2  1  0  0  0
  2  3  1  0  0  0
  3  4  2  0  0  0
  3  5  1  0  0  0
  5  6  1  0  0  0
  6 12  1  0  0  0
  6  7  2  0  0  0
  7  8  1  0  0  0
  8  9  2  0  0  0
  8 10  1  0  0  0
 10 11  1  0  0  0
 11 28  1  0  0  0
 11 12  2  0  0  0
 28 30  1  0  0  0
 30 35  1  0  0  0
 30 31  2  0  0  0
 31 32  1  0  0  0
 32 33  2  0  0  0
 33 34  1  0  0  0
 34 35  2  0  0  0
 17 18  1  0  0  0
  5 13  1  0  0  0
 10 14  1  0  0  0
 28 29  1  0  0  0
M  CHG 1  25   1
M  CHG 1  26  -1
M  END
> <minimizedAffinity>
-9.10636

$$$$
ZINC000008655434


 21 21  0  0  0  0  0  0  0  0999 V2000
   -8.0044   15.2790   -8.7048 C   0  0  0  0  0  0  0  0  0  0  0  0
   -7.1907   16.3704   -8.9597 C   0  0  0  0  0  0  0  0  0  0  0  0
   -6.6128   16.5574  -10.2921 C   0  0  0  0  0  0  0  0  0  0  0  0
   -7.1698   17.4908  -11.1781 C   0  0  0  0  0  0  0  0  0  0  0  0
   -6.6189   17.6602  -12.4295 C   0  0  0  0  0  0  0  0  0  0  0  0
   -5.5185   16.9122  -12.8134 C   0  0  0  0  0  0  0  0  0  0  0  0
   -4.9614   15.9880  -11.9453 C   0  0  0  0  0  0  0  0  0  0  0  0
   -5.4953   15.8085  -10.6879 C   0  0  0  0  0  0  0  0  0  0  0  0
   -8.1087   14.1978   -9.6876 C   0  0  0  0  0  0  0  0  0  0  0  0
   -7.4092   13.2120   -9.5815 O   0  0  0  0  0  0  0  0  0  0  0  0
   -8.3961   13.8935  -12.1317 C   0  0  0  0  0  0  0  0  0  0  0  0
   -9.0846   14.3098  -10.8303 C   0  0  0  0  0  0  0  0  0  0  0  0
   -8.7605   15.2059   -7.4524 C   0  0  0  0  0  0  0  0  0  0  0  0
   -9.4694   14.2473   -7.2269 O   0  0  0  0  0  0  0  0  0  0  0  0
   -8.6582   16.3212   -6.4442 C   0  0  0  0  0  0  0  0  0  0  0  0
   -9.0357   15.7926   -5.0589 C   0  0  0  0  0  0  0  0  0  0  0  0
   -9.6117   17.4519   -6.8359 C   0  0  0  0  0  0  0  0  0  0  0  0
   -8.8518   18.6983   -7.0004 N   0  0  0  0  0  0  0  0  0  0  0  0
   -9.2414   19.3466   -8.2598 C   0  0  0  0  0  0  0  0  0  0  0  0
   -9.1395   19.5992   -5.8765 C   0  0  0  0  0  0  0  0  0  0  0  0
   -5.0188   16.8921   -5.8429 H   0  0  0  0  0  0  0  0  0  0  0  0
 11 12  1  0  0  0
 12  9  1  0  0  0
  9 10  2  0  0  0
  9  1  1  0  0  0
  1  2  2  0  0  0
  1 13  1  0  0  0
  2  3  1  0  0  0
  3  8  2  0  0  0
  3  4  1  0  0  0
  4  5  2  0  0  0
  5  6  1  0  0  0
  6  7  2  0  0  0
  7  8  1  0  0  0
 13 14  2  0  0  0
 13 15  1  0  0  0
 15 16  1  0  0  0
 15 17  1  0  0  0
 17 18  1  0  0  0
 18 19  1  0  0  0
 18 20  1  0  0  0
 18 21  1  0  0  0
M  CHG 1  18   1
M  END
> <minimizedAffinity>
-6.31911

$$$$
ZINC000038832467


 22 23  0  0  0  0  0  0  0  0999 V2000
   -8.4939   19.0089   -7.9156 C   0  0  0  0  0  0  0  0  0  0  0  0
   -8.4471   19.3767   -9.2613 C   0  0  0  0  0  0  0  0  0  0  0  0
   -7.7912   18.5727  -10.1705 C   0  0  0  0  0  0  0  0  0  0  0  0
   -7.1809   17.4039   -9.7511 C   0  0  0  0  0  0  0  0  0  0  0  0
   -7.2232   17.0339   -8.4185 C   0  0  0  0  0  0  0  0  0  0  0  0
   -7.8712   17.8315   -7.4982 C   0  0  0  0  0  0  0  0  0  0  0  0
   -9.3066   21.1906   -7.1576 N   0  0  0  0  0  0  0  0  0  0  0  0
   -9.1945   19.8659   -6.9356 C   0  0  0  0  0  0  0  0  0  0  0  0
   -9.6696   19.3759   -5.9298 O   0  0  0  0  0  0  0  0  0  0  0  0
   -9.9912   23.4678   -6.6692 H   0  0  0  0  0  0  0  0  0  0  0  0
  -10.0008   22.0399   -6.1866 C   0  0  0  0  0  0  0  0  0  0  0  0
   -8.5618   24.0111   -6.1166 C   0  0  0  0  0  0  0  0  0  0  0  0
   -9.7052   23.4875   -6.4834 C   0  0  0  0  0  0  0  0  0  0  0  0
   -6.4667   16.5303  -10.7499 C   0  0  0  0  0  0  0  0  0  0  0  0
   -7.1561   15.2372  -10.8507 N   0  0  0  0  0  0  0  0  0  0  0  0
   -7.7200   15.0886  -12.1977 C   0  0  0  0  0  0  0  0  0  0  0  0
   -8.5082   13.7798  -12.2833 C   0  0  0  0  0  0  0  0  0  0  0  0
   -7.5706   12.6055  -11.9885 C   0  0  0  0  0  0  0  0  0  0  0  0
   -6.9311   12.8088  -10.6120 C   0  0  0  0  0  0  0  0  0  0  0  0
   -5.9340   11.6807  -10.3401 C   0  0  0  0  0  0  0  0  0  0  0  0
   -6.2010   14.1535  -10.5900 C   0  0  0  0  0  0  0  0  0  0  0  0
  -12.4068   22.7575   -8.9774 H   0  0  0  0  0  0  0  0  0  0  0  0
 12 13  2  0  0  0
 13 11  1  0  0  0
 11  7  1  0  0  0
  7  8  1  0  0  0
  8  9  2  0  0  0
  8  1  1  0  0  0
  1  6  2  0  0  0
  1  2  1  0  0  0
  2  3  2  0  0  0
  3  4  1  0  0  0
  4 14  1  0  0  0
  4  5  2  0  0  0
 14 15  1  0  0  0
 15 21  1  0  0  0
 15 16  1  0  0  0
 16 17  1  0  0  0
 17 18  1  0  0  0
 18 19  1  0  0  0
 19 20  1  0  0  0
 19 21  1  0  0  0
  5  6  1  0  0  0
  7 10  1  0  0  0
 15 22  1  0  0  0
M  CHG 1  15   1
M  END
> <minimizedAffinity>
-6.85740

$$$$
ZINC000217355510


 36 38  0  0  0  0  0  0  0  0999 V2000
   -9.1472   16.3193   -4.6027 N   0  0  0  0  0  0  0  0  0  0  0  0
   -9.0860   17.7327   -4.9979 C   0  0  0  0  0  0  0  0  0  0  0  0
   -6.6662   15.9820  -11.4629 H   0  0  0  0  0  0  0  0  0  0  0  0
   -9.1599   15.4748   -5.8047 C   0  0  0  0  0  0  0  0  0  0  0  0
   -6.5042   19.1700  -10.2417 C   0  0  0  0  0  0  0  0  0  0  0  0
   -6.9623   18.1864  -10.9757 C   0  0  0  0  0  0  0  0  0  0  0  0
   -6.7114   18.1459  -12.4679 C   0  0  0  0  0  0  0  0  0  0  0  0
   -6.1318   16.7753  -12.8315 C   0  0  0  0  0  0  0  0  0  0  0  0
   -7.0573   15.6724  -12.3132 C   0  0  0  0  0  0  0  0  0  0  0  0
   -7.1215   15.7288  -10.7878 C   0  0  0  0  0  0  0  0  0  0  0  0
   -5.7092   15.6214  -10.2090 C   0  0  0  0  0  0  0  0  0  0  0  0
   -7.9987   14.5978  -10.2530 C   0  0  0  0  0  0  0  0  0  0  0  0
   -8.0982   14.6475   -8.7473 C   0  0  0  0  0  0  0  0  0  0  0  0
   -6.8314   14.3842   -8.0790 O   0  0  0  0  0  0  0  0  0  0  0  0
   -6.9652   14.7929   -6.7974 C   0  0  0  0  0  0  0  0  0  0  0  0
   -6.3475   14.3563   -5.8553 O   0  0  0  0  0  0  0  0  0  0  0  0
   -8.0135   15.8874   -6.7300 C   0  0  0  0  0  0  0  0  0  0  0  0
   -8.4915   16.0318   -8.1969 C   0  0  0  0  0  0  0  0  0  0  0  0
   -7.6702   17.1681   -8.8104 C   0  0  0  0  0  0  0  0  0  0  0  0
   -7.7510   17.0562  -10.3568 C   0  0  0  0  0  0  0  0  0  0  0  0
  -10.3698   16.0810   -3.8239 C   0  0  0  0  0  0  0  0  0  0  0  0
  -11.2758   17.3111   -3.9081 C   0  0  0  0  0  0  0  0  0  0  0  0
  -12.2924   17.0877   -4.8873 O   0  0  0  0  0  0  0  0  0  0  0  0
   -3.3582   17.7003   -8.3289 H   0  0  0  0  0  0  0  0  0  0  0  0
  -11.9259   17.5597   -2.5456 C   0  0  0  0  0  0  0  0  0  0  0  0
  -13.3425   17.4101   -2.6594 O   0  0  0  0  0  0  0  0  0  0  0  0
  -12.9674   14.2533  -12.2850 H   0  0  0  0  0  0  0  0  0  0  0  0
  -11.3862   16.5496   -1.5311 C   0  0  0  0  0  0  0  0  0  0  0  0
  -12.4561   15.7250   -1.0646 O   0  0  0  0  0  0  0  0  0  0  0  0
  -20.8990   15.2120   -7.1112 H   0  0  0  0  0  0  0  0  0  0  0  0
  -10.7652   17.2963   -0.3488 C   0  0  0  0  0  0  0  0  0  0  0  0
  -10.9846   18.6999   -0.5036 O   0  0  0  0  0  0  0  0  0  0  0  0
  -19.0090    8.8910   -4.1117 H   0  0  0  0  0  0  0  0  0  0  0  0
   -9.2616   17.0172   -0.3024 C   0  0  0  0  0  0  0  0  0  0  0  0
   -8.5996   17.8079   -1.2917 O   0  0  0  0  0  0  0  0  0  0  0  0
  -17.7362   18.0700    9.8283 H   0  0  0  0  0  0  0  0  0  0  0  0
  5  6  2  0  0  0
  6 20  1  0  0  0
  6  7  1  0  0  0
  7  8  1  0  0  0
  8  9  1  0  0  0
  9 10  1  0  0  0
 10 20  1  0  0  0
 10 11  1  0  0  0
 10 12  1  0  0  0
 12 13  1  0  0  0
 13 18  1  0  0  0
 13 14  1  0  0  0
 14 15  1  0  0  0
 15 16  2  0  0  0
 15 17  1  0  0  0
 17  4  1  0  0  0
 17 18  1  0  0  0
  4  1  1  0  0  0
  1  2  1  0  0  0
  1 21  1  0  0  0
 21 22  1  0  0  0
 22 23  1  0  0  0
 22 25  1  0  0  0
 25 26  1  0  0  0
 25 28  1  0  0  0
 28 29  1  0  0  0
 28 31  1  0  0  0
 31 32  1  0  0  0
 31 34  1  0  0  0
 34 35  1  0  0  0
 18 19  1  0  0  0
 19 20  1  0  0  0
  1  3  1  0  0  0
 23 24  1  0  0  0
 26 27  1  0  0  0
 29 30  1  0  0  0
 32 33  1  0  0  0
 35 36  1  0  0  0
M  CHG 1   1   1
M  END
> <minimizedAffinity>
-7.73830

$$$$
ZINC000020112767


 22 22  0  0  0  0  0  0  0  0999 V2000
   -6.6681   17.5036   -8.1860 C   0  0  0  0  0  0  0  0  0  0  0  0
   -6.0527   16.1622   -7.8428 C   0  0  0  0  0  0  0  0  0  0  0  0
   -5.0320   16.0761   -7.1917 O   0  0  0  0  0  0  0  0  0  0  0  0
   -6.7593   14.9645   -8.3414 C   0  0  0  0  0  0  0  0  0  0  0  0
   -6.0864   13.8525   -8.8305 C   0  0  0  0  0  0  0  0  0  0  0  0
   -8.2337   15.0357   -8.2824 C   0  0  0  0  0  0  0  0  0  0  0  0
   -8.9072   14.0745   -7.9725 O   0  0  0  0  0  0  0  0  0  0  0  0
   -8.8619   16.3706   -8.6280 C   0  0  0  0  0  0  0  0  0  0  0  0
   -8.1569   17.4741   -7.8297 C   0  0  0  0  0  0  0  0  0  0  0  0
   -8.3155   17.1986   -6.3331 C   0  0  0  0  0  0  0  0  0  0  0  0
   -8.7896   18.8263   -8.1648 C   0  0  0  0  0  0  0  0  0  0  0  0
   -6.5072   17.7705   -9.6604 C   0  0  0  0  0  0  0  0  0  0  0  0
   -6.7512   18.8667  -10.1062 O   0  0  0  0  0  0  0  0  0  0  0  0
   -6.8343   16.6042  -11.7129 C   0  0  0  0  0  0  0  0  0  0  0  0
   -6.0927   16.7903  -10.4785 O   0  0  0  0  0  0  0  0  0  0  0  0
   -6.7793   12.7877   -9.2725 N   0  0  0  0  0  0  0  0  0  0  0  0
   -5.9446   18.0562   -9.6876 H   0  0  0  0  0  0  0  0  0  0  0  0
   -6.1233   11.7859  -10.1164 C   0  0  0  0  0  0  0  0  0  0  0  0
   -6.6339   11.9071  -11.5291 C   0  0  0  0  0  0  0  0  0  0  0  0
   -6.3043   12.8583  -12.2169 O   0  0  0  0  0  0  0  0  0  0  0  0
   -7.3766   11.0540  -11.9842 O   0  0  0  0  0  0  0  0  0  0  0  0
   -0.7420   12.5731   -6.9613 H   0  0  0  0  0  0  0  0  0  0  0  0
 14 15  1  0  0  0
 15 12  1  0  0  0
 12 13  2  0  0  0
 12  1  1  0  0  0
  1  9  1  0  0  0
  1  2  1  0  0  0
  2  3  2  0  0  0
  2  4  1  0  0  0
  4  5  2  0  0  0
  4  6  1  0  0  0
  5 16  1  0  0  0
 16 18  1  0  0  0
 18 19  1  0  0  0
 19 20  2  0  0  0
 19 21  1  0  0  0
  6  7  2  0  0  0
  6  8  1  0  0  0
  8  9  1  0  0  0
  9 10  1  0  0  0
  9 11  1  0  0  0
 16 17  1  0  0  0
 21 22  1  0  0  0
M  END
> <minimizedAffinity>
-6.65018

$$$$
ZINC000329043087


 25 27  0  0  0  0  0  0  0  0999 V2000
   -5.5151   15.8243  -11.1103 C   0  0  0  0  0  0  0  0  0  0  0  0
   -5.5277   16.5599  -12.2118 N   0  0  0  0  0  0  0  0  0  0  0  0
   -6.0748   17.7669  -12.2188 C   0  0  0  0  0  0  0  0  0  0  0  0
   -6.6386   18.2598  -11.0586 C   0  0  0  0  0  0  0  0  0  0  0  0
   -6.6106   17.4614   -9.9127 C   0  0  0  0  0  0  0  0  0  0  0  0
   -6.0499   16.2582   -9.9786 N   0  0  0  0  0  0  0  0  0  0  0  0
   -6.0822   18.5925  -13.4795 C   0  0  0  0  0  0  0  0  0  0  0  0
   -7.0785   18.2029  -14.5733 C   0  0  0  0  0  0  0  0  0  0  0  0
   -7.3091   19.4676  -13.7436 C   0  0  0  0  0  0  0  0  0  0  0  0
   -4.9339   14.5688  -11.1441 N   0  0  0  0  0  0  0  0  0  0  0  0
   -5.4249   11.0653  -12.5079 H   0  0  0  0  0  0  0  0  0  0  0  0
   -5.5892   13.4775  -11.8693 C   0  0  0  0  0  0  0  0  0  0  0  0
   -6.7156   12.8985  -11.0109 C   0  0  0  0  0  0  0  0  0  0  0  0
   -7.8322   10.8202  -11.5346 O   0  0  0  0  0  0  0  0  0  0  0  0
   -7.7331   12.1952  -11.9114 C   0  0  0  0  0  0  0  0  0  0  0  0
   -7.7305   12.1910  -11.9101 H   0  0  0  0  0  0  0  0  0  0  0  0
   -7.1640   17.9148   -8.7265 N   0  0  0  0  0  0  0  0  0  0  0  0
   -1.0007   14.5198   -8.6350 H   0  0  0  0  0  0  0  0  0  0  0  0
   -8.4482   18.6197   -8.7397 C   0  0  0  0  0  0  0  0  0  0  0  0
   -8.7781   19.0886   -7.3461 C   0  0  0  0  0  0  0  0  0  0  0  0
   -9.3534   20.3333   -7.1421 C   0  0  0  0  0  0  0  0  0  0  0  0
   -9.6403   20.7228   -5.8425 C   0  0  0  0  0  0  0  0  0  0  0  0
   -9.3453   19.8636   -4.8013 C   0  0  0  0  0  0  0  0  0  0  0  0
   -8.7978   18.6863   -5.0328 N   0  0  0  0  0  0  0  0  0  0  0  0
   -8.5163   18.2808   -6.2555 C   0  0  0  0  0  0  0  0  0  0  0  0
 14 15  1  0  0  0
 15 13  1  0  0  0
 13 12  1  0  0  0
 12 10  1  0  0  0
 10  1  1  0  0  0
  1  6  2  0  0  0
  1  2  1  0  0  0
  2  3  2  0  0  0
  3  7  1  0  0  0
  3  4  1  0  0  0
  7  9  1  0  0  0
  7  8  1  0  0  0
  8  9  1  0  0  0
  4  5  2  0  0  0
  5 17  1  0  0  0
  5  6  1  0  0  0
 17 19  1  0  0  0
 19 20  1  0  0  0
 20 25  1  0  0  0
 20 21  2  0  0  0
 21 22  1  0  0  0
 22 23  2  0  0  0
 23 24  1  0  0  0
 24 25  2  0  0  0
 14 16  1  0  0  0
 10 11  1  0  0  0
 17 18  1  0  0  0
M  END
> <minimizedAffinity>
-7.44465

$$$$
ZINC000257259113


 30 32  0  0  0  0  0  0  0  0999 V2000
   -8.8046   18.2027   -8.3581 C   0  0  0  0  0  0  0  0  0  0  0  0
   -9.2892   19.4368   -8.9004 O   0  0  0  0  0  0  0  0  0  0  0  0
   -9.3187   19.4452  -10.3297 C   0  0  0  0  0  0  0  0  0  0  0  0
   -7.9951   18.9792  -10.8695 C   0  0  0  0  0  0  0  0  0  0  0  0
   -7.7299   19.1933  -12.0334 O   0  0  0  0  0  0  0  0  0  0  0  0
   -7.0987   18.3366  -10.1107 N   0  0  0  0  0  0  0  0  0  0  0  0
   -7.3170   18.0684   -8.6905 C   0  0  0  0  0  0  0  0  0  0  0  0
   -6.8508   16.6722   -8.3676 C   0  0  0  0  0  0  0  0  0  0  0  0
   -5.6346   16.4774   -7.7398 C   0  0  0  0  0  0  0  0  0  0  0  0
   -5.2071   15.1966   -7.4437 C   0  0  0  0  0  0  0  0  0  0  0  0
   -5.9957   14.1107   -7.7749 C   0  0  0  0  0  0  0  0  0  0  0  0
   -7.2122   14.3055   -8.4019 C   0  0  0  0  0  0  0  0  0  0  0  0
   -7.6417   15.5865   -8.6942 C   0  0  0  0  0  0  0  0  0  0  0  0
   -9.7149   17.2264   -6.2756 N   0  0  0  0  0  0  0  0  0  0  0  0
   -8.9908   18.1998   -6.8627 C   0  0  0  0  0  0  0  0  0  0  0  0
   -8.4890   19.0734   -6.1874 O   0  0  0  0  0  0  0  0  0  0  0  0
  -11.1451   15.2716   -5.2723 H   0  0  0  0  0  0  0  0  0  0  0  0
   -9.8960   17.2236   -4.8219 C   0  0  0  0  0  0  0  0  0  0  0  0
  -11.5114   18.5830   -3.7552 O   0  0  0  0  0  0  0  0  0  0  0  0
  -11.3083   17.6322   -4.4909 C   0  0  0  0  0  0  0  0  0  0  0  0
  -12.2479   17.0149   -4.9626 O   0  0  0  0  0  0  0  0  0  0  0  0
  -11.5087   18.5814   -3.7591 H   0  0  0  0  0  0  0  0  0  0  0  0
   -5.8509   17.8808  -10.7284 C   0  0  0  0  0  0  0  0  0  0  0  0
   -6.0378   16.4861  -11.2681 C   0  0  0  0  0  0  0  0  0  0  0  0
   -4.9725   15.6057  -11.2913 C   0  0  0  0  0  0  0  0  0  0  0  0
   -5.1433   14.3259  -11.7859 C   0  0  0  0  0  0  0  0  0  0  0  0
   -6.3792   13.9266  -12.2579 C   0  0  0  0  0  0  0  0  0  0  0  0
   -7.4460   14.8075  -12.2350 C   0  0  0  0  0  0  0  0  0  0  0  0
   -8.9990   14.3063  -12.8273 Cl  0  0  0  0  0  0  0  0  0  0  0  0
   -7.2760   16.0859  -11.7347 C   0  0  0  0  0  0  0  0  0  0  0  0
 19 20  2  0  0  0
 20 21  1  0  0  0
 20 18  1  0  0  0
 18 14  1  0  0  0
 14 15  1  0  0  0
 15 16  2  0  0  0
 15  1  1  0  0  0
  1  7  1  0  0  0
  1  2  1  0  0  0
  2  3  1  0  0  0
  3  4  1  0  0  0
  4  5  2  0  0  0
  4  6  1  0  0  0
  6 23  1  0  0  0
  6  7  1  0  0  0
 23 24  1  0  0  0
 24 30  1  0  0  0
 24 25  2  0  0  0
 25 26  1  0  0  0
 26 27  2  0  0  0
 27 28  1  0  0  0
 28 29  1  0  0  0
 28 30  2  0  0  0
  7  8  1  0  0  0
  8 13  1  0  0  0
  8  9  2  0  0  0
  9 10  1  0  0  0
 10 11  2  0  0  0
 11 12  1  0  0  0
 12 13  2  0  0  0
 21 22  1  0  0  0
 14 17  1  0  0  0
M  END
> <minimizedAffinity>
-8.40887

$$$$
ZINC000097097772


 25 27  0  0  0  0  0  0  0  0999 V2000
   -9.1423   17.1276    0.6136 C   0  0  0  0  0  0  0  0  0  0  0  0
   -9.6206   16.3974   -0.6429 C   0  0  0  0  0  0  0  0  0  0  0  0
   -8.6365   16.6528   -1.7867 C   0  0  0  0  0  0  0  0  0  0  0  0
   -9.1000   15.8923   -3.0332 C   0  0  0  0  0  0  0  0  0  0  0  0
  -10.4862   16.2760   -3.3330 N   0  0  0  0  0  0  0  0  0  0  0  0
  -10.8241   16.7291   -4.5565 C   0  0  0  0  0  0  0  0  0  0  0  0
  -11.9865   16.9761   -4.8137 O   0  0  0  0  0  0  0  0  0  0  0  0
  -11.4973   16.1558   -2.2737 C   0  0  0  0  0  0  0  0  0  0  0  0
  -11.0068   16.9135   -1.0359 C   0  0  0  0  0  0  0  0  0  0  0  0
   -9.7834   16.9254   -5.5837 C   0  0  0  0  0  0  0  0  0  0  0  0
   -9.3010   18.2069   -5.8589 C   0  0  0  0  0  0  0  0  0  0  0  0
   -8.3283   18.3835   -6.8193 C   0  0  0  0  0  0  0  0  0  0  0  0
   -7.8263   17.2954   -7.5138 C   0  0  0  0  0  0  0  0  0  0  0  0
   -8.2943   16.0228   -7.2515 C   0  0  0  0  0  0  0  0  0  0  0  0
   -9.2689   15.8261   -6.2849 C   0  0  0  0  0  0  0  0  0  0  0  0
   -9.7296   14.5767   -6.0263 O   0  0  0  0  0  0  0  0  0  0  0  0
  -14.6196   17.3815   -5.6796 H   0  0  0  0  0  0  0  0  0  0  0  0
   -6.7816   17.4974   -8.5426 N   0  0  0  0  0  0  0  0  0  0  0  0
   -6.7946   18.4993   -9.2352 O   0  0  0  0  0  0  0  0  0  0  0  0
   -5.9088   16.6620   -8.6967 O   0  0  0  0  0  0  0  0  0  0  0  0
  -10.9292   18.3450   -1.3378 N   0  0  0  0  0  0  0  0  0  0  0  0
  -10.0007   18.9578   -2.1353 C   0  0  0  0  0  0  0  0  0  0  0  0
  -10.2968   20.2715   -2.1393 C   0  0  0  0  0  0  0  0  0  0  0  0
  -11.3766   20.4558   -1.3654 N   0  0  0  0  0  0  0  0  0  0  0  0
  -11.7640   19.3056   -0.8860 C   0  0  0  0  0  0  0  0  0  0  0  0
  1  2  1  0  0  0
  2  9  1  0  0  0
  2  3  1  0  0  0
  3  4  1  0  0  0
  4  5  1  0  0  0
  5  6  1  0  0  0
  5  8  1  0  0  0
  6  7  2  0  0  0
  6 10  1  0  0  0
 10 15  1  0  0  0
 10 11  2  0  0  0
 11 12  1  0  0  0
 12 13  2  0  0  0
 13 18  1  0  0  0
 13 14  1  0  0  0
 18 19  1  0  0  0
 18 20  2  0  0  0
 14 15  2  0  0  0
 15 16  1  0  0  0
  8  9  1  0  0  0
  9 21  1  0  0  0
 21 25  1  0  0  0
 21 22  1  0  0  0
 22 23  2  0  0  0
 23 24  1  0  0  0
 24 25  2  0  0  0
 16 17  1  0  0  0
M  CHG 1  18   1
M  CHG 1  19  -1
M  END
> <minimizedAffinity>
-5.93549

$$$$
ZINC000096167079


 33 36  0  0  0  0  0  0  0  0999 V2000
   -9.8284   16.3394   -7.7278 O   0  0  0  0  0  0  0  0  0  0  0  0
   -8.7908   16.9406   -7.9092 C   0  0  0  0  0  0  0  0  0  0  0  0
   -8.2513   17.6696   -6.9121 N   0  0  0  0  0  0  0  0  0  0  0  0
  -10.8784   16.1198   -8.3679 H   0  0  0  0  0  0  0  0  0  0  0  0
   -8.1016   16.8677   -9.2473 C   0  0  0  0  0  0  0  0  0  0  0  0
   -8.0822   18.2570   -9.8884 C   0  0  0  0  0  0  0  0  0  0  0  0
   -7.4093   18.1893  -11.1912 N   0  0  0  0  0  0  0  0  0  0  0  0
   -6.0083   17.7912  -11.0080 C   0  0  0  0  0  0  0  0  0  0  0  0
   -5.9480   16.3840  -10.4100 C   0  0  0  0  0  0  0  0  0  0  0  0
   -6.6631   16.3787   -9.0558 C   0  0  0  0  0  0  0  0  0  0  0  0
   -7.3960   15.7329   -6.5533 H   0  0  0  0  0  0  0  0  0  0  0  0
   -7.3960   15.7329   -6.5533 H   0  0  0  0  0  0  0  0  0  0  0  0
   -6.6261   15.4121  -11.3409 C   0  0  0  0  0  0  0  0  0  0  0  0
   -7.3854   15.8192  -12.1945 O   0  0  0  0  0  0  0  0  0  0  0  0
   -6.3887   14.0904  -11.2249 N   0  0  0  0  0  0  0  0  0  0  0  0
   -5.5685   13.5621  -10.1234 C   0  0  0  0  0  0  0  0  0  0  0  0
   -6.3398   12.4209   -9.4506 C   0  0  0  0  0  0  0  0  0  0  0  0
   -6.7498   11.4793  -10.4451 O   0  0  0  0  0  0  0  0  0  0  0  0
   -7.6471   12.0130  -11.4217 C   0  0  0  0  0  0  0  0  0  0  0  0
   -6.9474   13.1327  -12.1923 C   0  0  0  0  0  0  0  0  0  0  0  0
   -8.9183   17.7356   -5.6094 C   0  0  0  0  0  0  0  0  0  0  0  0
   -9.3397   19.1557   -5.3323 C   0  0  0  0  0  0  0  0  0  0  0  0
   -9.0950   20.0577   -6.2335 N   0  0  0  0  0  0  0  0  0  0  0  0
   -9.4456   21.3559   -6.0540 C   0  0  0  0  0  0  0  0  0  0  0  0
   -9.1832   22.3262   -7.0228 C   0  0  0  0  0  0  0  0  0  0  0  0
   -9.5573   23.6324   -6.7985 C   0  0  0  0  0  0  0  0  0  0  0  0
  -10.1929   23.9979   -5.6194 C   0  0  0  0  0  0  0  0  0  0  0  0
  -10.4623   23.0583   -4.6481 C   0  0  0  0  0  0  0  0  0  0  0  0
  -10.0926   21.7313   -4.8556 C   0  0  0  0  0  0  0  0  0  0  0  0
  -10.3535   20.6855   -3.8552 C   0  0  0  0  0  0  0  0  0  0  0  0
  -10.9065   20.9422   -2.8016 O   0  0  0  0  0  0  0  0  0  0  0  0
   -9.9610   19.4253   -4.1546 N   0  0  0  0  0  0  0  0  0  0  0  0
   -8.2283   14.2860   -6.9078 H   0  0  0  0  0  0  0  0  0  0  0  0
  1  2  2  0  0  0
  2  3  1  0  0  0
  2  5  1  0  0  0
  3 21  1  0  0  0
 21 22  1  0  0  0
 22 32  1  0  0  0
 22 23  2  0  0  0
 23 24  1  0  0  0
 24 29  2  0  0  0
 24 25  1  0  0  0
 25 26  2  0  0  0
 26 27  1  0  0  0
 27 28  2  0  0  0
 28 29  1  0  0  0
 29 30  1  0  0  0
 30 31  2  0  0  0
 30 32  1  0  0  0
  5 10  1  0  0  0
  5  6  1  0  0  0
  6  7  1  0  0  0
  7  8  1  0  0  0
  8  9  1  0  0  0
  9 13  1  0  0  0
  9 10  1  0  0  0
 13 14  2  0  0  0
 13 15  1  0  0  0
 15 20  1  0  0  0
 15 16  1  0  0  0
 16 17  1  0  0  0
 17 18  1  0  0  0
 18 19  1  0  0  0
 19 20  1  0  0  0
  3  4  1  0  0  0
 32 33  1  0  0  0
  7 11  1  0  0  0
  7 12  1  0  0  0
M  CHG 1   7   1
M  END
> <minimizedAffinity>
-8.69969

$$$$
ZINC000012483841


 26 27  0  0  0  0  0  0  0  0999 V2000
   -6.8387   14.0937  -11.6570 C   0  0  0  0  0  0  0  0  0  0  0  0
   -7.8159   13.0069  -11.1798 C   0  0  0  0  0  0  0  0  0  0  0  0
   -7.1931   11.6322  -11.5186 C   0  0  0  0  0  0  0  0  0  0  0  0
   -6.4166   11.2810  -10.3592 O   0  0  0  0  0  0  0  0  0  0  0  0
   -6.5338   12.3733   -9.4292 C   0  0  0  0  0  0  0  0  0  0  0  0
   -7.8060   13.0294   -9.7307 O   0  0  0  0  0  0  0  0  0  0  0  0
   -5.4009   13.3712   -9.7149 C   0  0  0  0  0  0  0  0  0  0  0  0
   -5.4220   13.7087  -11.2160 C   0  0  0  0  0  0  0  0  0  0  0  0
   -5.0331   12.5582  -11.9692 O   0  0  0  0  0  0  0  0  0  0  0  0
   -9.3549   19.6229  -11.1437 H   0  0  0  0  0  0  0  0  0  0  0  0
   -7.3937   17.7026  -11.2241 N   0  0  0  0  0  0  0  0  0  0  0  0
   -7.0556   16.5180  -11.7710 C   0  0  0  0  0  0  0  0  0  0  0  0
   -6.6147   16.4748  -12.9032 O   0  0  0  0  0  0  0  0  0  0  0  0
   -7.2062   15.3813  -11.0625 N   0  0  0  0  0  0  0  0  0  0  0  0
   -6.7616   20.0879  -10.5477 H   0  0  0  0  0  0  0  0  0  0  0  0
   -6.7616   20.0879  -10.5477 H   0  0  0  0  0  0  0  0  0  0  0  0
   -7.2301   18.9380  -11.9941 C   0  0  0  0  0  0  0  0  0  0  0  0
   -8.7820   19.8507  -10.3449 C   0  0  0  0  0  0  0  0  0  0  0  0
   -8.2435   19.9543  -11.5345 C   0  0  0  0  0  0  0  0  0  0  0  0
   -5.6276   14.6054   -8.9512 N   0  0  0  0  0  0  0  0  0  0  0  0
   -8.9995   19.7938  -11.3145 H   0  0  0  0  0  0  0  0  0  0  0  0
   -8.9995   19.7938  -11.3145 H   0  0  0  0  0  0  0  0  0  0  0  0
   -5.5792   14.3073   -7.5135 C   0  0  0  0  0  0  0  0  0  0  0  0
   -6.5662   15.2111   -6.7719 C   0  0  0  0  0  0  0  0  0  0  0  0
   -7.8924   14.7054   -6.9376 O   0  0  0  0  0  0  0  0  0  0  0  0
   -8.8050   15.6438   -7.5107 C   0  0  0  0  0  0  0  0  0  0  0  0
 18 19  2  0  0  0
 19 17  1  0  0  0
 17 11  1  0  0  0
 11 12  1  0  0  0
 12 13  2  0  0  0
 12 14  1  0  0  0
 14  1  1  0  0  0
  1  8  1  0  0  0
  1  2  1  0  0  0
  2  6  1  0  0  0
  2  3  1  0  0  0
  3  4  1  0  0  0
  4  5  1  0  0  0
  5  6  1  0  0  0
  5  7  1  0  0  0
  7 20  1  0  0  0
  7  8  1  0  0  0
 20 23  1  0  0  0
 23 24  1  0  0  0
 24 25  1  0  0  0
 25 26  1  0  0  0
  8  9  1  0  0  0
 11 15  1  0  0  0
 14 16  1  0  0  0
 20 21  1  0  0  0
 20 22  1  0  0  0
  9 10  1  0  0  0
M  CHG 1  20   1
M  END
> <minimizedAffinity>
-6.27873

$$$$
ZINC000026912371


 34 36  0  0  0  0  0  0  0  0999 V2000
   -6.8030   16.7658   -9.0257 C   0  0  0  0  0  0  0  0  0  0  0  0
   -7.1138   16.8614   -7.7150 C   0  0  0  0  0  0  0  0  0  0  0  0
   -6.7189   15.9036   -6.8253 N   0  0  0  0  0  0  0  0  0  0  0  0
   -6.0101   14.8202   -7.1667 C   0  0  0  0  0  0  0  0  0  0  0  0
   -5.7043   14.0214   -6.3028 O   0  0  0  0  0  0  0  0  0  0  0  0
   -5.6249   14.5859   -8.4368 N   0  0  0  0  0  0  0  0  0  0  0  0
   -6.0067   15.5575   -9.4754 C   0  0  0  0  0  0  0  0  0  0  0  0
   -6.9756   18.8823  -12.0438 H   0  0  0  0  0  0  0  0  0  0  0  0
   -6.9756   18.8823  -12.0438 H   0  0  0  0  0  0  0  0  0  0  0  0
   -6.8060   14.8271  -10.5235 C   0  0  0  0  0  0  0  0  0  0  0  0
   -8.1151   14.4649  -10.2667 C   0  0  0  0  0  0  0  0  0  0  0  0
   -8.8482   13.7949  -11.2281 C   0  0  0  0  0  0  0  0  0  0  0  0
   -8.2725   13.4874  -12.4466 C   0  0  0  0  0  0  0  0  0  0  0  0
   -6.9637   13.8503  -12.7039 C   0  0  0  0  0  0  0  0  0  0  0  0
   -6.2319   14.5242  -11.7441 C   0  0  0  0  0  0  0  0  0  0  0  0
   -7.2119   17.7568   -9.9485 C   0  0  0  0  0  0  0  0  0  0  0  0
   -8.3925   18.0264  -10.0685 O   0  0  0  0  0  0  0  0  0  0  0  0
   -6.2928   18.4033  -10.6958 O   0  0  0  0  0  0  0  0  0  0  0  0
   -5.0126   17.8150  -12.6592 C   0  0  0  0  0  0  0  0  0  0  0  0
   -6.3772   18.2394  -12.1128 C   0  0  0  0  0  0  0  0  0  0  0  0
   -7.9100   18.0439   -7.2264 C   0  0  0  0  0  0  0  0  0  0  0  0
   -8.5679   17.7011   -5.9584 N   0  0  0  0  0  0  0  0  0  0  0  0
   -9.9224   17.1826   -6.1916 C   0  0  0  0  0  0  0  0  0  0  0  0
  -10.5040   16.6697   -4.8699 C   0  0  0  0  0  0  0  0  0  0  0  0
  -10.4133   17.7454   -3.8709 N   0  0  0  0  0  0  0  0  0  0  0  0
  -11.4913   18.1131   -3.1504 C   0  0  0  0  0  0  0  0  0  0  0  0
  -12.5563   17.5537   -3.3220 O   0  0  0  0  0  0  0  0  0  0  0  0
   -9.1147   18.4088   -3.6788 C   0  0  0  0  0  0  0  0  0  0  0  0
   -8.5879   18.8532   -5.0474 C   0  0  0  0  0  0  0  0  0  0  0  0
  -11.3882   19.1001   -2.2406 O   0  0  0  0  0  0  0  0  0  0  0  0
  -11.3405   18.7066   -0.8437 C   0  0  0  0  0  0  0  0  0  0  0  0
  -12.6697   19.0540   -0.1704 C   0  0  0  0  0  0  0  0  0  0  0  0
  -11.0983   17.1991   -0.7465 C   0  0  0  0  0  0  0  0  0  0  0  0
  -10.2034   19.4522   -0.1424 C   0  0  0  0  0  0  0  0  0  0  0  0
 19 20  1  0  0  0
 20 18  1  0  0  0
 18 16  1  0  0  0
 16 17  2  0  0  0
 16  1  1  0  0  0
  1  7  1  0  0  0
  1  2  2  0  0  0
  2 21  1  0  0  0
  2  3  1  0  0  0
 21 22  1  0  0  0
 22 29  1  0  0  0
 22 23  1  0  0  0
 23 24  1  0  0  0
 24 25  1  0  0  0
 25 26  1  0  0  0
 25 28  1  0  0  0
 26 27  2  0  0  0
 26 30  1  0  0  0
 30 31  1  0  0  0
 31 32  1  0  0  0
 31 33  1  0  0  0
 31 34  1  0  0  0
 28 29  1  0  0  0
  3  4  1  0  0  0
  4  5  2  0  0  0
  4  6  1  0  0  0
  6  7  1  0  0  0
  7 10  1  0  0  0
 10 15  1  0  0  0
 10 11  2  0  0  0
 11 12  1  0  0  0
 12 13  2  0  0  0
 13 14  1  0  0  0
 14 15  2  0  0  0
  3  8  1  0  0  0
  6  9  1  0  0  0
M  END
> <minimizedAffinity>
-7.44473

$$$$
