ZINC000008974945


 27 30  0  0  0  0  0  0  0  0999 V2000
   -7.8529   18.8534   -1.6023 C   0  0  0  0  0  0  0  0  0  0  0  0
   -9.0979   18.5698   -2.3205 N   0  0  0  0  0  0  0  0  0  0  0  0
  -10.2436   18.4823   -1.6283 C   0  0  0  0  0  0  0  0  0  0  0  0
  -10.2207   18.6384   -0.4236 O   0  0  0  0  0  0  0  0  0  0  0  0
  -11.4140   18.2273   -2.2320 N   0  0  0  0  0  0  0  0  0  0  0  0
  -11.5031   18.0445   -3.5572 C   0  0  0  0  0  0  0  0  0  0  0  0
  -12.5876   17.8172   -4.0489 O   0  0  0  0  0  0  0  0  0  0  0  0
  -10.2970   18.1138   -4.4497 C   0  0  0  0  0  0  0  0  0  0  0  0
  -10.1286   16.7839   -5.1897 C   0  0  0  0  0  0  0  0  0  0  0  0
   -9.1492   16.9491   -6.3241 C   0  0  0  0  0  0  0  0  0  0  0  0
   -8.6202   15.8061   -6.9021 C   0  0  0  0  0  0  0  0  0  0  0  0
   -7.7251   15.9001   -7.9494 C   0  0  0  0  0  0  0  0  0  0  0  0
   -7.3519   17.1426   -8.4278 C   0  0  0  0  0  0  0  0  0  0  0  0
   -7.8709   18.2846   -7.8558 C   0  0  0  0  0  0  0  0  0  0  0  0
   -8.7723   18.1964   -6.7942 C   0  0  0  0  0  0  0  0  0  0  0  0
   -9.2478   19.3819   -6.2430 N   0  0  0  0  0  0  0  0  0  0  0  0
   -9.3733   20.4463   -7.2470 C   0  0  0  0  0  0  0  0  0  0  0  0
   -9.7447   21.7549   -6.5421 C   0  0  0  0  0  0  0  0  0  0  0  0
  -10.9447   21.5649   -5.7884 O   0  0  0  0  0  0  0  0  0  0  0  0
  -10.8553   20.5295   -4.8048 C   0  0  0  0  0  0  0  0  0  0  0  0
  -10.4983   19.2128   -5.4990 C   0  0  0  0  0  0  0  0  0  0  0  0
   -9.0599   18.4108   -3.6511 C   0  0  0  0  0  0  0  0  0  0  0  0
   -7.9957   18.5008   -4.2249 O   0  0  0  0  0  0  0  0  0  0  0  0
   -9.0952   18.5687   -2.3165 H   0  0  0  0  0  0  0  0  0  0  0  0
   -7.1666   14.6728   -8.5594 N   0  0  0  0  0  0  0  0  0  0  0  0
   -6.0002   14.6429   -8.9089 O   0  0  0  0  0  0  0  0  0  0  0  0
   -7.8734   13.6926   -8.7121 O   0  0  0  0  0  0  0  0  0  0  0  0
  1  2  1  0  0  0
  2 22  1  0  0  0
  2  3  1  0  0  0
  3  4  2  0  0  0
  3  5  1  0  0  0
  5  6  1  0  0  0
  6  7  2  0  0  0
  8  6  1  0  0  0
  8 21  1  0  0  0
  8  9  1  0  0  0
  8 22  1  0  0  0
  9 10  1  0  0  0
 10 15  2  0  0  0
 10 11  1  0  0  0
 11 12  2  0  0  0
 12 25  1  0  0  0
 12 13  1  0  0  0
 25 26  1  0  0  0
 25 27  2  0  0  0
 13 14  2  0  0  0
 14 15  1  0  0  0
 15 16  1  0  0  0
 16 21  1  0  0  0
 16 17  1  0  0  0
 17 18  1  0  0  0
 18 19  1  0  0  0
 19 20  1  0  0  0
 20 21  1  0  0  0
 22 23  2  0  0  0
  5 24  1  0  0  0
M  CHG 1  25   1
M  CHG 1  26  -1
M  END
> <minimizedAffinity>
-6.69437

$$$$
ZINC000225754471


 19 20  0  0  0  0  0  0  0  0999 V2000
   -6.8900   12.5331  -11.0487 C   0  0  0  0  0  0  0  0  0  0  0  0
   -6.6740   11.4863  -11.8086 N   0  0  0  0  0  0  0  0  0  0  0  0
   -5.8859   10.6777  -11.1948 N   0  0  0  0  0  0  0  0  0  0  0  0
   -5.5565   11.1383  -10.0403 N   0  0  0  0  0  0  0  0  0  0  0  0
   -6.1459   12.3123   -9.8719 C   0  0  0  0  0  0  0  0  0  0  0  0
   -7.5194   14.2342  -11.6535 H   0  0  0  0  0  0  0  0  0  0  0  0
   -6.8736   15.4365  -11.9709 C   0  0  0  0  0  0  0  0  0  0  0  0
   -7.9566   14.0142  -11.4468 Si  0  0  0  0  0  0  0  0  0  0  0  0
   -8.9326   14.5005   -9.9362 C   0  0  0  0  0  0  0  0  0  0  0  0
   -9.1273   13.5825  -12.8301 C   0  0  0  0  0  0  0  0  0  0  0  0
   -6.0504   13.1993   -8.6956 C   0  0  0  0  0  0  0  0  0  0  0  0
   -5.3410   14.2789   -8.7558 N   0  0  0  0  0  0  0  0  0  0  0  0
   -5.2462   15.1591   -7.5885 C   0  0  0  0  0  0  0  0  0  0  0  0
   -6.3105   16.2225   -7.6733 C   0  0  0  0  0  0  0  0  0  0  0  0
   -7.3358   16.2496   -6.7465 C   0  0  0  0  0  0  0  0  0  0  0  0
   -8.3122   17.2250   -6.8242 C   0  0  0  0  0  0  0  0  0  0  0  0
   -8.2632   18.1736   -7.8286 C   0  0  0  0  0  0  0  0  0  0  0  0
   -7.2373   18.1470   -8.7549 C   0  0  0  0  0  0  0  0  0  0  0  0
   -6.2586   17.1741   -8.6746 C   0  0  0  0  0  0  0  0  0  0  0  0
  7  8  1  0  0  0
  8  9  1  0  0  0
  8 10  1  0  0  0
  8  1  1  0  0  0
  1  5  1  0  0  0
  1  2  2  0  0  0
  2  3  1  0  0  0
  3  4  1  0  0  0
  4  5  2  0  0  0
  5 11  1  0  0  0
 11 12  2  0  0  0
 12 13  1  0  0  0
 13 14  1  0  0  0
 14 19  1  0  0  0
 14 15  2  0  0  0
 15 16  1  0  0  0
 16 17  2  0  0  0
 17 18  1  0  0  0
 18 19  2  0  0  0
  3  6  1  0  0  0
M  END
> <minimizedAffinity>
-6.22152

$$$$
ZINC000020465022


 29 31  0  0  0  0  0  0  0  0999 V2000
   -5.7914   14.4336   -9.3567 C   0  0  0  0  0  0  0  0  0  0  0  0
   -6.7021   13.3217   -9.4984 O   0  0  0  0  0  0  0  0  0  0  0  0
   -6.3081   12.6604  -10.7204 C   0  0  0  0  0  0  0  0  0  0  0  0
   -5.9836   13.8076  -11.7029 C   0  0  0  0  0  0  0  0  0  0  0  0
   -7.1213   14.1101  -12.5127 O   0  0  0  0  0  0  0  0  0  0  0  0
   -5.6330   15.0018  -10.7844 C   0  0  0  0  0  0  0  0  0  0  0  0
  -12.4204   18.1519   -6.9714 H   0  0  0  0  0  0  0  0  0  0  0  0
   -6.5691   16.1123  -11.0043 N   0  0  0  0  0  0  0  0  0  0  0  0
   -6.2346   17.2704  -10.1366 C   0  0  0  0  0  0  0  0  0  0  0  0
   -6.9302   18.4585  -10.8473 C   0  0  0  0  0  0  0  0  0  0  0  0
   -6.7311   18.1303  -12.3448 C   0  0  0  0  0  0  0  0  0  0  0  0
   -6.4825   16.6113  -12.3940 C   0  0  0  0  0  0  0  0  0  0  0  0
   -7.4573   11.8050  -11.2575 C   0  0  0  0  0  0  0  0  0  0  0  0
   -6.9257   10.6835  -11.9656 O   0  0  0  0  0  0  0  0  0  0  0  0
   -6.9821    8.2644   -2.8596 H   0  0  0  0  0  0  0  0  0  0  0  0
   -6.3843   15.4924   -8.4248 C   0  0  0  0  0  0  0  0  0  0  0  0
   -7.3162   14.8547   -7.4915 N   0  0  0  0  0  0  0  0  0  0  0  0
  -10.6376   13.6382  -13.3332 H   0  0  0  0  0  0  0  0  0  0  0  0
   -8.9145   15.2880   -7.4915 S   0  0  0  0  0  0  0  0  0  0  0  0
   -9.5041   14.6468   -6.3688 O   0  0  0  0  0  0  0  0  0  0  0  0
   -9.3791   15.1078   -8.8222 O   0  0  0  0  0  0  0  0  0  0  0  0
   -9.0966   19.7366   -6.6645 C   0  0  0  0  0  0  0  0  0  0  0  0
   -8.7635   18.8539   -5.6474 C   0  0  0  0  0  0  0  0  0  0  0  0
   -8.7089   17.4971   -5.9022 C   0  0  0  0  0  0  0  0  0  0  0  0
   -8.9855   17.0190   -7.1697 C   0  0  0  0  0  0  0  0  0  0  0  0
   -9.3181   17.8966   -8.1849 C   0  0  0  0  0  0  0  0  0  0  0  0
   -9.3792   19.2538   -7.9340 C   0  0  0  0  0  0  0  0  0  0  0  0
  -10.0126   21.5002   -5.3596 C   0  0  0  0  0  0  0  0  0  0  0  0
   -9.1514   21.0716   -6.4163 O   0  0  0  0  0  0  0  0  0  0  0  0
 28 29  1  0  0  0
 29 22  1  0  0  0
 22 27  2  0  0  0
 22 23  1  0  0  0
 23 24  2  0  0  0
 24 25  1  0  0  0
 25 19  1  0  0  0
 25 26  2  0  0  0
 19 20  2  0  0  0
 19 21  2  0  0  0
 19 17  1  0  0  0
 17 16  1  0  0  0
 16  1  1  0  0  0
  1  6  1  0  0  0
  1  2  1  0  0  0
  2  3  1  0  0  0
  3 13  1  0  0  0
  3  4  1  0  0  0
 13 14  1  0  0  0
  4  5  1  0  0  0
  4  6  1  0  0  0
  6  8  1  0  0  0
  8 12  1  0  0  0
  8  9  1  0  0  0
  9 10  1  0  0  0
 10 11  1  0  0  0
 11 12  1  0  0  0
 26 27  1  0  0  0
 17 18  1  0  0  0
 14 15  1  0  0  0
  5  7  1  0  0  0
M  END
> <minimizedAffinity>
-7.48584

$$$$
ZINC000214860403


 23 24  0  0  0  0  0  0  0  0999 V2000
   -6.8738   14.1044   -9.8920 C   0  0  0  0  0  0  0  0  0  0  0  0
   -6.0217   15.1417  -10.0847 C   0  0  0  0  0  0  0  0  0  0  0  0
   -6.5500   16.4945  -10.3123 C   0  0  0  0  0  0  0  0  0  0  0  0
   -6.6416   17.4016   -9.2509 C   0  0  0  0  0  0  0  0  0  0  0  0
   -7.1379   18.6686   -9.4728 C   0  0  0  0  0  0  0  0  0  0  0  0
   -7.5447   19.0442  -10.7414 C   0  0  0  0  0  0  0  0  0  0  0  0
   -7.4573   18.1529  -11.7968 C   0  0  0  0  0  0  0  0  0  0  0  0
   -6.9585   16.8839  -11.5928 C   0  0  0  0  0  0  0  0  0  0  0  0
   -8.0763   20.4079  -10.9709 N   0  0  0  0  0  0  0  0  0  0  0  0
   -8.1805   20.8379  -12.1057 O   0  0  0  0  0  0  0  0  0  0  0  0
   -8.4091   21.0991  -10.0248 O   0  0  0  0  0  0  0  0  0  0  0  0
   -6.3519   12.7873   -9.5146 C   0  0  0  0  0  0  0  0  0  0  0  0
   -5.1811   12.5061   -9.7366 O   0  0  0  0  0  0  0  0  0  0  0  0
   -7.0869   11.9685   -8.9776 O   0  0  0  0  0  0  0  0  0  0  0  0
   -9.6294   19.5998   -9.9966 H   0  0  0  0  0  0  0  0  0  0  0  0
   -8.6082   14.3397  -10.0953 S   0  0  0  0  0  0  0  0  0  0  0  0
   -9.5734   16.2138   -6.8422 C   0  0  0  0  0  0  0  0  0  0  0  0
   -9.4375   14.9930   -6.4134 N   0  0  0  0  0  0  0  0  0  0  0  0
   -9.1105   14.2261   -7.3932 N   0  0  0  0  0  0  0  0  0  0  0  0
   -9.0257   14.9380   -8.4914 C   0  0  0  0  0  0  0  0  0  0  0  0
   -9.3229   16.2105   -8.1661 O   0  0  0  0  0  0  0  0  0  0  0  0
   -8.7597   18.3717   -5.9311 C   0  0  0  0  0  0  0  0  0  0  0  0
   -9.9493   17.4128   -6.0104 C   0  0  0  0  0  0  0  0  0  0  0  0
 22 23  1  0  0  0
 23 17  1  0  0  0
 17 21  1  0  0  0
 17 18  2  0  0  0
 18 19  1  0  0  0
 19 20  2  0  0  0
 20 16  1  0  0  0
 20 21  1  0  0  0
 16  1  1  0  0  0
  1  2  2  0  0  0
  1 12  1  0  0  0
  2  3  1  0  0  0
  3  8  1  0  0  0
  3  4  2  0  0  0
  4  5  1  0  0  0
  5  6  2  0  0  0
  6  9  1  0  0  0
  6  7  1  0  0  0
  9 10  1  0  0  0
  9 11  2  0  0  0
  7  8  2  0  0  0
 12 13  2  0  0  0
 12 14  1  0  0  0
 14 15  1  0  0  0
M  CHG 1   9   1
M  CHG 1  10  -1
M  END
> <minimizedAffinity>
-7.66093

$$$$
ZINC000017013829


 22 22  0  0  0  0  0  0  0  0999 V2000
   -6.0874   14.8894  -11.5776 N   0  0  0  0  0  0  0  0  0  0  0  0
   -6.6987   15.1173  -10.3748 C   0  0  0  0  0  0  0  0  0  0  0  0
   -7.0354   14.0734   -9.5874 C   0  0  0  0  0  0  0  0  0  0  0  0
   -6.7471   12.7586  -10.0261 C   0  0  0  0  0  0  0  0  0  0  0  0
   -7.0416   11.8012   -9.3335 O   0  0  0  0  0  0  0  0  0  0  0  0
   -6.1437   12.5762  -11.2181 N   0  0  0  0  0  0  0  0  0  0  0  0
   -5.8235   13.6347  -11.9853 C   0  0  0  0  0  0  0  0  0  0  0  0
   -5.2797   13.4549  -13.0577 O   0  0  0  0  0  0  0  0  0  0  0  0
   -8.9258   19.0830  -14.2633 H   0  0  0  0  0  0  0  0  0  0  0  0
   -7.6976   14.3007   -8.2833 N   0  0  0  0  0  0  0  0  0  0  0  0
   -8.9134   14.2979   -8.2089 O   0  0  0  0  0  0  0  0  0  0  0  0
   -7.0268   14.4905   -7.2845 O   0  0  0  0  0  0  0  0  0  0  0  0
   -5.7225   16.0219  -12.4322 C   0  0  0  0  0  0  0  0  0  0  0  0
   -6.5460   18.1394  -11.6094 N   0  0  0  0  0  0  0  0  0  0  0  0
   -6.7723   17.0970  -12.3171 C   0  0  0  0  0  0  0  0  0  0  0  0
   -7.5220   19.1389  -11.5024 N   0  0  0  0  0  0  0  0  0  0  0  0
   -7.9914   19.4898  -10.2884 H   0  0  0  0  0  0  0  0  0  0  0  0
   -8.3561   20.7708  -10.0565 N   0  0  0  0  0  0  0  0  0  0  0  0
   -7.9926   19.4942  -10.2905 C   0  0  0  0  0  0  0  0  0  0  0  0
   -8.1289   18.3240   -9.0484 S   0  0  0  0  0  0  0  0  0  0  0  0
   -7.9913   19.4990  -10.2911 H   0  0  0  0  0  0  0  0  0  0  0  0
   -7.9913   19.4990  -10.2911 H   0  0  0  0  0  0  0  0  0  0  0  0
 18 19  1  0  0  0
 19 20  2  0  0  0
 19 16  1  0  0  0
 16 14  1  0  0  0
 14 15  2  0  0  0
 15 13  1  0  0  0
 13  1  1  0  0  0
  1  7  1  0  0  0
  1  2  1  0  0  0
  2  3  2  0  0  0
  3 10  1  0  0  0
  3  4  1  0  0  0
 10 11  1  0  0  0
 10 12  2  0  0  0
  4  5  2  0  0  0
  4  6  1  0  0  0
  6  7  1  0  0  0
  7  8  2  0  0  0
 18 21  1  0  0  0
 18 22  1  0  0  0
 16 17  1  0  0  0
  6  9  1  0  0  0
M  CHG 1  10   1
M  CHG 1  11  -1
M  END
> <minimizedAffinity>
-6.19165

$$$$
ZINC000005394137


 22 23  0  0  0  0  0  0  0  0999 V2000
   -6.4616   15.9930  -10.2481 C   0  0  0  0  0  0  0  0  0  0  0  0
   -7.2277   14.8880  -10.5898 C   0  0  0  0  0  0  0  0  0  0  0  0
   -7.2840   14.4981  -11.9203 C   0  0  0  0  0  0  0  0  0  0  0  0
   -8.1084   13.3020  -12.3211 C   0  0  0  0  0  0  0  0  0  0  0  0
   -6.6142   15.1767  -12.8362 N   0  0  0  0  0  0  0  0  0  0  0  0
   -5.8784   16.2375  -12.5094 C   0  0  0  0  0  0  0  0  0  0  0  0
   -5.2742   16.8388  -13.3819 O   0  0  0  0  0  0  0  0  0  0  0  0
   -5.7939   16.6616  -11.2346 N   0  0  0  0  0  0  0  0  0  0  0  0
   -0.7813   16.1884   -7.1120 H   0  0  0  0  0  0  0  0  0  0  0  0
   -7.9726   14.1384   -9.5532 N   0  0  0  0  0  0  0  0  0  0  0  0
   -7.4386   13.2124   -8.9694 O   0  0  0  0  0  0  0  0  0  0  0  0
   -9.1195   14.4476   -9.2842 O   0  0  0  0  0  0  0  0  0  0  0  0
   -6.3804   16.4099   -8.9438 N   0  0  0  0  0  0  0  0  0  0  0  0
  -10.1121   20.8818   -8.0317 H   0  0  0  0  0  0  0  0  0  0  0  0
   -8.9234   19.4052   -7.5503 C   0  0  0  0  0  0  0  0  0  0  0  0
   -8.4976   19.4160   -8.8705 C   0  0  0  0  0  0  0  0  0  0  0  0
   -7.6554   18.4242   -9.3329 C   0  0  0  0  0  0  0  0  0  0  0  0
   -7.2348   17.4157   -8.4759 C   0  0  0  0  0  0  0  0  0  0  0  0
   -7.6614   17.4055   -7.1544 C   0  0  0  0  0  0  0  0  0  0  0  0
   -8.4993   18.4011   -6.6922 C   0  0  0  0  0  0  0  0  0  0  0  0
   -9.6667   20.7117   -5.7076 C   0  0  0  0  0  0  0  0  0  0  0  0
   -9.7523   20.3824   -7.0955 O   0  0  0  0  0  0  0  0  0  0  0  0
 21 22  1  0  0  0
 22 15  1  0  0  0
 15 20  2  0  0  0
 15 16  1  0  0  0
 16 17  2  0  0  0
 17 18  1  0  0  0
 18 13  1  0  0  0
 18 19  2  0  0  0
 13  1  1  0  0  0
  1  8  1  0  0  0
  1  2  2  0  0  0
  2 10  1  0  0  0
  2  3  1  0  0  0
 10 11  1  0  0  0
 10 12  2  0  0  0
  3  4  1  0  0  0
  3  5  2  0  0  0
  5  6  1  0  0  0
  6  7  2  0  0  0
  6  8  1  0  0  0
 19 20  1  0  0  0
 13 14  1  0  0  0
  8  9  1  0  0  0
M  CHG 1  10   1
M  CHG 1  11  -1
M  END
> <minimizedAffinity>
-6.97218

$$$$
ZINC000096396299


 27 29  0  0  0  0  0  0  0  0999 V2000
   -8.5843   19.3128   -8.7893 N   0  0  0  0  0  0  0  0  0  0  0  0
   -9.1564   20.0363   -9.9309 C   0  0  0  0  0  0  0  0  0  0  0  0
   -8.2668   19.6691  -11.1393 C   0  0  0  0  0  0  0  0  0  0  0  0
   -7.6990   18.2972  -10.7075 C   0  0  0  0  0  0  0  0  0  0  0  0
   -7.7618   18.3307   -9.1964 C   0  0  0  0  0  0  0  0  0  0  0  0
   -7.1628   17.5762   -8.4593 O   0  0  0  0  0  0  0  0  0  0  0  0
   -9.6855   20.5209   -3.3569 C   0  0  0  0  0  0  0  0  0  0  0  0
   -9.3927   20.2001   -4.7999 C   0  0  0  0  0  0  0  0  0  0  0  0
   -8.9520   18.9372   -5.1501 C   0  0  0  0  0  0  0  0  0  0  0  0
   -8.6829   18.6400   -6.4719 C   0  0  0  0  0  0  0  0  0  0  0  0
   -8.8557   19.6108   -7.4494 C   0  0  0  0  0  0  0  0  0  0  0  0
   -9.2990   20.8783   -7.0944 C   0  0  0  0  0  0  0  0  0  0  0  0
   -9.5709   21.1677   -5.7718 C   0  0  0  0  0  0  0  0  0  0  0  0
  -10.0524   22.5425   -5.3857 C   0  0  0  0  0  0  0  0  0  0  0  0
   -6.3130   18.1509  -11.1589 N   0  0  0  0  0  0  0  0  0  0  0  0
  -10.3441   14.8335   -5.9693 H   0  0  0  0  0  0  0  0  0  0  0  0
   -5.9162   16.9632  -12.2425 S   0  0  0  0  0  0  0  0  0  0  0  0
   -6.4453   17.3710  -13.4967 O   0  0  0  0  0  0  0  0  0  0  0  0
   -4.5400   16.6752  -12.0361 O   0  0  0  0  0  0  0  0  0  0  0  0
   -6.8032   15.5140  -11.7758 C   0  0  0  0  0  0  0  0  0  0  0  0
   -7.8163   15.0341  -12.5835 C   0  0  0  0  0  0  0  0  0  0  0  0
   -8.5137   13.8956  -12.2165 C   0  0  0  0  0  0  0  0  0  0  0  0
   -9.5047   13.4265  -13.0060 F   0  0  0  0  0  0  0  0  0  0  0  0
   -8.1952   13.2376  -11.0409 C   0  0  0  0  0  0  0  0  0  0  0  0
   -7.1815   13.7174  -10.2334 C   0  0  0  0  0  0  0  0  0  0  0  0
   -6.4811   14.8529  -10.6025 C   0  0  0  0  0  0  0  0  0  0  0  0
   -5.4903   15.3219   -9.8130 F   0  0  0  0  0  0  0  0  0  0  0  0
  7  8  1  0  0  0
  8 13  2  0  0  0
  8  9  1  0  0  0
  9 10  2  0  0  0
 10 11  1  0  0  0
 11  1  1  0  0  0
 11 12  2  0  0  0
  1  5  1  0  0  0
  1  2  1  0  0  0
  2  3  1  0  0  0
  3  4  1  0  0  0
  4 15  1  0  0  0
  4  5  1  0  0  0
 15 17  1  0  0  0
 17 18  2  0  0  0
 17 19  2  0  0  0
 17 20  1  0  0  0
 20 26  1  0  0  0
 20 21  2  0  0  0
 21 22  1  0  0  0
 22 23  1  0  0  0
 22 24  2  0  0  0
 24 25  1  0  0  0
 25 26  2  0  0  0
 26 27  1  0  0  0
  5  6  2  0  0  0
 12 13  1  0  0  0
 13 14  1  0  0  0
 15 16  1  0  0  0
M  END
> <minimizedAffinity>
-8.58697

$$$$
ZINC000002557963


 30 33  0  0  0  0  0  0  0  0999 V2000
   -9.6554   17.2156   -5.6886 C   0  0  0  0  0  0  0  0  0  0  0  0
   -9.6066   16.3100   -6.9208 C   0  0  0  0  0  0  0  0  0  0  0  0
   -8.4428   15.3262   -6.7848 C   0  0  0  0  0  0  0  0  0  0  0  0
   -5.9580   16.1499   -7.1716 O   0  0  0  0  0  0  0  0  0  0  0  0
   -6.4870   15.6767   -8.1545 C   0  0  0  0  0  0  0  0  0  0  0  0
   -5.7178   15.6116   -9.4484 C   0  0  0  0  0  0  0  0  0  0  0  0
   -6.2245   14.4307  -10.2751 C   0  0  0  0  0  0  0  0  0  0  0  0
   -5.5272   14.4035  -11.6421 C   0  0  0  0  0  0  0  0  0  0  0  0
   -4.7743   13.0582  -11.7221 C   0  0  0  0  0  0  0  0  0  0  0  0
   -5.5274   12.1411  -10.7262 C   0  0  0  0  0  0  0  0  0  0  0  0
   -5.8793   13.1083   -9.5676 C   0  0  0  0  0  0  0  0  0  0  0  0
   -7.7373   14.5439  -10.4578 C   0  0  0  0  0  0  0  0  0  0  0  0
   -8.3916   14.6694   -9.1065 C   0  0  0  0  0  0  0  0  0  0  0  0
   -9.5237   14.2635   -8.9542 O   0  0  0  0  0  0  0  0  0  0  0  0
   -7.7437   15.2164   -8.0675 N   0  0  0  0  0  0  0  0  0  0  0  0
   -8.8546   18.4907   -5.9607 C   0  0  0  0  0  0  0  0  0  0  0  0
   -9.1276   18.9583   -7.3262 N   0  0  0  0  0  0  0  0  0  0  0  0
  -11.3116   15.5045   -2.1709 H   0  0  0  0  0  0  0  0  0  0  0  0
  -11.3116   15.5045   -2.1709 H   0  0  0  0  0  0  0  0  0  0  0  0
   -7.8839   18.9404   -8.1079 C   0  0  0  0  0  0  0  0  0  0  0  0
   -8.2159   19.0513   -9.5973 C   0  0  0  0  0  0  0  0  0  0  0  0
   -8.2088   20.5263  -10.0207 C   0  0  0  0  0  0  0  0  0  0  0  0
   -8.5087   20.5928  -11.4191 O   0  0  0  0  0  0  0  0  0  0  0  0
   -7.8423   19.7256  -12.2292 C   0  0  0  0  0  0  0  0  0  0  0  0
   -7.8012   19.9645  -13.5945 C   0  0  0  0  0  0  0  0  0  0  0  0
   -7.1311   19.0910  -14.4305 C   0  0  0  0  0  0  0  0  0  0  0  0
   -6.5003   17.9777  -13.9082 C   0  0  0  0  0  0  0  0  0  0  0  0
   -6.5362   17.7345  -12.5479 C   0  0  0  0  0  0  0  0  0  0  0  0
   -7.2057   18.6072  -11.7035 C   0  0  0  0  0  0  0  0  0  0  0  0
   -7.2259   18.3584  -10.3654 O   0  0  0  0  0  0  0  0  0  0  0  0
  4  5  2  0  0  0
  5 15  1  0  0  0
  5  6  1  0  0  0
  6  7  1  0  0  0
  7 11  1  0  0  0
  7  8  1  0  0  0
  7 12  1  0  0  0
  8  9  1  0  0  0
  9 10  1  0  0  0
 10 11  1  0  0  0
 12 13  1  0  0  0
 13 14  2  0  0  0
 13 15  1  0  0  0
 15  3  1  0  0  0
  3  2  1  0  0  0
  2  1  1  0  0  0
  1 16  1  0  0  0
 16 17  1  0  0  0
 17 20  1  0  0  0
 20 21  1  0  0  0
 21 30  1  0  0  0
 21 22  1  0  0  0
 22 23  1  0  0  0
 23 24  1  0  0  0
 24 29  2  0  0  0
 24 25  1  0  0  0
 25 26  2  0  0  0
 26 27  1  0  0  0
 27 28  2  0  0  0
 28 29  1  0  0  0
 29 30  1  0  0  0
 17 18  1  0  0  0
 17 19  1  0  0  0
M  CHG 1  17   1
M  END
> <minimizedAffinity>
-7.90087

$$$$
ZINC000257325961


 32 34  0  0  0  0  0  0  0  0999 V2000
   -8.2500   17.0011   -8.0500 C   0  0  0  0  0  0  0  0  0  0  0  0
   -7.1347   17.0150   -7.1567 O   0  0  0  0  0  0  0  0  0  0  0  0
   -8.3701   15.6606   -8.7152 C   0  0  0  0  0  0  0  0  0  0  0  0
   -7.0206   14.9025   -8.6732 C   0  0  0  0  0  0  0  0  0  0  0  0
   -5.8481   15.8873   -8.9082 C   0  0  0  0  0  0  0  0  0  0  0  0
   -6.0519   16.8791   -9.9241 N   0  0  0  0  0  0  0  0  0  0  0  0
   -5.7325   16.6205  -11.2076 C   0  0  0  0  0  0  0  0  0  0  0  0
   -5.9089   17.4663  -12.0587 O   0  0  0  0  0  0  0  0  0  0  0  0
   -6.6273   18.2104   -9.5344 C   0  0  0  0  0  0  0  0  0  0  0  0
   -8.0310   17.9978   -9.1835 C   0  0  0  0  0  0  0  0  0  0  0  0
  -10.3082   22.9430   -3.8165 H   0  0  0  0  0  0  0  0  0  0  0  0
   -9.5374   17.3340   -7.2933 C   0  0  0  0  0  0  0  0  0  0  0  0
  -10.2125   20.9021   -5.0649 C   0  0  0  0  0  0  0  0  0  0  0  0
   -9.4266   20.9718   -6.3774 C   0  0  0  0  0  0  0  0  0  0  0  0
   -9.7226   19.7224   -7.2097 C   0  0  0  0  0  0  0  0  0  0  0  0
   -9.3222   18.5252   -6.4609 N   0  0  0  0  0  0  0  0  0  0  0  0
  -10.1224   18.4132   -5.2356 C   0  0  0  0  0  0  0  0  0  0  0  0
   -9.8418   19.6123   -4.3273 C   0  0  0  0  0  0  0  0  0  0  0  0
  -10.2309   23.3166   -4.4877 H   0  0  0  0  0  0  0  0  0  0  0  0
  -10.4938   24.1063   -2.9891 C   0  0  0  0  0  0  0  0  0  0  0  0
  -10.8406   22.9174   -3.8477 C   0  0  0  0  0  0  0  0  0  0  0  0
  -11.9881   22.7340   -4.1948 O   0  0  0  0  0  0  0  0  0  0  0  0
   -9.8754   22.0579   -4.2301 N   0  0  0  0  0  0  0  0  0  0  0  0
  -10.6637   23.1148   -4.0336 H   0  0  0  0  0  0  0  0  0  0  0  0
   -5.1562   15.2802  -11.5853 C   0  0  0  0  0  0  0  0  0  0  0  0
   -6.0225   14.6406  -12.6721 C   0  0  0  0  0  0  0  0  0  0  0  0
   -6.2215   13.2178  -12.3654 N   0  0  0  0  0  0  0  0  0  0  0  0
   -7.5942   12.9656  -11.9030 C   0  0  0  0  0  0  0  0  0  0  0  0
   -7.7751   11.4662  -11.6525 C   0  0  0  0  0  0  0  0  0  0  0  0
   -6.7959   11.0240  -10.7087 O   0  0  0  0  0  0  0  0  0  0  0  0
   -5.4478   11.2536  -11.1273 C   0  0  0  0  0  0  0  0  0  0  0  0
   -5.2432   12.7508  -11.3724 C   0  0  0  0  0  0  0  0  0  0  0  0
 20 21  1  0  0  0
 21 22  2  0  0  0
 21 23  1  0  0  0
 23 13  1  0  0  0
 13 18  1  0  0  0
 13 14  1  0  0  0
 14 15  1  0  0  0
 15 16  1  0  0  0
 16 12  1  0  0  0
 16 17  1  0  0  0
  1 12  1  0  0  0
  1 10  1  0  0  0
  1  2  1  0  0  0
  1  3  1  0  0  0
  3  4  1  0  0  0
  4  5  1  0  0  0
  5  6  1  0  0  0
  6  7  1  0  0  0
  6  9  1  0  0  0
  7  8  2  0  0  0
  7 25  1  0  0  0
 25 26  1  0  0  0
 26 27  1  0  0  0
 27 32  1  0  0  0
 27 28  1  0  0  0
 28 29  1  0  0  0
 29 30  1  0  0  0
 30 31  1  0  0  0
 31 32  1  0  0  0
  9 10  1  0  0  0
 17 18  1  0  0  0
 23 24  1  0  0  0
 16 19  1  0  0  0
  2 11  1  0  0  0
M  CHG 1  16   1
M  END
> <minimizedAffinity>
-8.06506

$$$$
ZINC000002099727


 24 25  0  0  0  0  0  0  0  0999 V2000
   -6.8879   18.4018  -10.9304 C   0  0  0  0  0  0  0  0  0  0  0  0
   -6.7560   18.0955  -12.2784 C   0  0  0  0  0  0  0  0  0  0  0  0
   -7.3710   19.4766  -13.7287 I   0  0  0  0  0  0  0  0  0  0  0  0
   -6.2211   16.8853  -12.6648 C   0  0  0  0  0  0  0  0  0  0  0  0
   -5.8099   15.9618  -11.6967 C   0  0  0  0  0  0  0  0  0  0  0  0
   -5.9440   16.2720  -10.3376 C   0  0  0  0  0  0  0  0  0  0  0  0
   -6.4752   17.4892   -9.9601 C   0  0  0  0  0  0  0  0  0  0  0  0
   -5.2391   14.6717  -12.1049 C   0  0  0  0  0  0  0  0  0  0  0  0
   -5.5378   13.5468  -11.4075 C   0  0  0  0  0  0  0  0  0  0  0  0
   -6.4873   13.4051  -10.3861 N   0  0  0  0  0  0  0  0  0  0  0  0
   -6.4572   12.1258   -9.9729 C   0  0  0  0  0  0  0  0  0  0  0  0
   -7.1619   11.6697   -9.0930 O   0  0  0  0  0  0  0  0  0  0  0  0
   -5.5468   11.4189  -10.6599 N   0  0  0  0  0  0  0  0  0  0  0  0
   -4.9395   12.2123  -11.5654 C   0  0  0  0  0  0  0  0  0  0  0  0
   -4.0667   11.8907  -12.3504 O   0  0  0  0  0  0  0  0  0  0  0  0
   -9.4840   20.9784  -10.4404 H   0  0  0  0  0  0  0  0  0  0  0  0
   -9.4840   20.9784  -10.4404 H   0  0  0  0  0  0  0  0  0  0  0  0
   -7.4154   19.5963  -10.5559 O   0  0  0  0  0  0  0  0  0  0  0  0
   -8.8161   19.6274  -10.2744 C   0  0  0  0  0  0  0  0  0  0  0  0
   -9.1901   20.2212   -7.7231 C   0  0  0  0  0  0  0  0  0  0  0  0
   -9.0241   19.9578   -8.8551 C   0  0  0  0  0  0  0  0  0  0  0  0
   -6.6068   17.7936   -8.6413 O   0  0  0  0  0  0  0  0  0  0  0  0
   -6.9258   16.7183   -7.7558 C   0  0  0  0  0  0  0  0  0  0  0  0
   -8.4410   16.5077   -7.7342 C   0  0  0  0  0  0  0  0  0  0  0  0
 20 21  3  0  0  0
 21 19  1  0  0  0
 19 18  1  0  0  0
 18  1  1  0  0  0
  1  7  2  0  0  0
  1  2  1  0  0  0
  2  3  1  0  0  0
  2  4  2  0  0  0
  4  5  1  0  0  0
  5  8  1  0  0  0
  5  6  2  0  0  0
  8  9  2  0  0  0
  9 14  1  0  0  0
  9 10  1  0  0  0
 10 11  1  0  0  0
 11 12  2  0  0  0
 11 13  1  0  0  0
 13 14  1  0  0  0
 14 15  2  0  0  0
  6  7  1  0  0  0
  7 22  1  0  0  0
 22 23  1  0  0  0
 23 24  1  0  0  0
 10 16  1  0  0  0
 13 17  1  0  0  0
M  END
> <minimizedAffinity>
-7.07361

$$$$
ZINC000019372683


 29 32  0  0  0  0  0  0  0  0999 V2000
   -9.3789   20.9187   -7.8853 O   0  0  0  0  0  0  0  0  0  0  0  0
   -8.9765   19.7720   -7.8451 C   0  0  0  0  0  0  0  0  0  0  0  0
   -8.7257   19.1053   -8.9893 N   0  0  0  0  0  0  0  0  0  0  0  0
   -8.7760   19.1696   -6.6563 N   0  0  0  0  0  0  0  0  0  0  0  0
   -9.1402   19.8289   -5.3909 C   0  0  0  0  0  0  0  0  0  0  0  0
  -10.2361   18.9965   -4.7268 C   0  0  0  0  0  0  0  0  0  0  0  0
   -9.8734   17.5350   -4.7265 C   0  0  0  0  0  0  0  0  0  0  0  0
   -8.9512   17.0025   -5.5687 C   0  0  0  0  0  0  0  0  0  0  0  0
   -8.1912   17.8265   -6.5688 C   0  0  0  0  0  0  0  0  0  0  0  0
   -8.6891   15.6176   -5.5105 C   0  0  0  0  0  0  0  0  0  0  0  0
   -7.8752   15.1101   -6.2645 O   0  0  0  0  0  0  0  0  0  0  0  0
   -9.3500   14.8626   -4.6099 N   0  0  0  0  0  0  0  0  0  0  0  0
  -10.2553   15.4498   -3.7813 C   0  0  0  0  0  0  0  0  0  0  0  0
  -10.4996   16.7401   -3.8491 N   0  0  0  0  0  0  0  0  0  0  0  0
   -9.3699   20.9146   -7.7548 H   0  0  0  0  0  0  0  0  0  0  0  0
   -9.3699   20.9146   -7.7548 H   0  0  0  0  0  0  0  0  0  0  0  0
  -10.9222   14.6853   -2.8620 N   0  0  0  0  0  0  0  0  0  0  0  0
  -10.9775   13.2207   -2.9921 C   0  0  0  0  0  0  0  0  0  0  0  0
  -10.5594   12.6002   -1.6542 C   0  0  0  0  0  0  0  0  0  0  0  0
  -11.3415   13.1745   -0.6042 O   0  0  0  0  0  0  0  0  0  0  0  0
  -11.1556   14.5823   -0.4386 C   0  0  0  0  0  0  0  0  0  0  0  0
  -11.5996   15.3036   -1.7112 C   0  0  0  0  0  0  0  0  0  0  0  0
   -9.0428   19.7208  -10.2803 C   0  0  0  0  0  0  0  0  0  0  0  0
   -8.0503   19.2572  -11.3152 C   0  0  0  0  0  0  0  0  0  0  0  0
   -8.0413   19.8340  -12.5714 C   0  0  0  0  0  0  0  0  0  0  0  0
   -7.1308   19.4088  -13.5207 C   0  0  0  0  0  0  0  0  0  0  0  0
   -6.2291   18.4070  -13.2136 C   0  0  0  0  0  0  0  0  0  0  0  0
   -6.2375   17.8309  -11.9570 C   0  0  0  0  0  0  0  0  0  0  0  0
   -7.1451   18.2592  -11.0064 C   0  0  0  0  0  0  0  0  0  0  0  0
  1  2  2  0  0  0
  2  3  1  0  0  0
  2  4  1  0  0  0
  3 23  1  0  0  0
 23 24  1  0  0  0
 24 29  1  0  0  0
 24 25  2  0  0  0
 25 26  1  0  0  0
 26 27  2  0  0  0
 27 28  1  0  0  0
 28 29  2  0  0  0
  4  9  1  0  0  0
  4  5  1  0  0  0
  5  6  1  0  0  0
  6  7  1  0  0  0
  7 14  1  0  0  0
  7  8  2  0  0  0
  8  9  1  0  0  0
  8 10  1  0  0  0
 10 11  2  0  0  0
 10 12  1  0  0  0
 12 13  1  0  0  0
 13 17  1  0  0  0
 13 14  2  0  0  0
 17 22  1  0  0  0
 17 18  1  0  0  0
 18 19  1  0  0  0
 19 20  1  0  0  0
 20 21  1  0  0  0
 21 22  1  0  0  0
  3 15  1  0  0  0
 12 16  1  0  0  0
M  END
> <minimizedAffinity>
-7.98758

$$$$
ZINC000409228542


 24 25  0  0  0  0  0  0  0  0999 V2000
   -6.3038   15.3173  -10.5905 C   0  0  0  0  0  0  0  0  0  0  0  0
   -6.0035   15.0436   -9.2506 C   0  0  0  0  0  0  0  0  0  0  0  0
   -6.2085   13.7745   -8.7463 C   0  0  0  0  0  0  0  0  0  0  0  0
   -6.7137   12.7695   -9.5703 C   0  0  0  0  0  0  0  0  0  0  0  0
   -6.9148   11.5221   -9.0712 O   0  0  0  0  0  0  0  0  0  0  0  0
   -7.0124   13.0397  -10.8991 C   0  0  0  0  0  0  0  0  0  0  0  0
   -6.8153   14.3037  -11.4100 C   0  0  0  0  0  0  0  0  0  0  0  0
   -7.7489   16.0264  -15.7608 H   0  0  0  0  0  0  0  0  0  0  0  0
   -8.5046   18.8909   -9.7294 N   0  0  0  0  0  0  0  0  0  0  0  0
   -7.9043   19.6614  -10.6493 C   0  0  0  0  0  0  0  0  0  0  0  0
   -8.1915   20.8227  -10.8683 O   0  0  0  0  0  0  0  0  0  0  0  0
   -6.9426   18.9802  -11.2968 N   0  0  0  0  0  0  0  0  0  0  0  0
   -6.9096   17.6819  -10.7691 C   0  0  0  0  0  0  0  0  0  0  0  0
   -6.0886   16.6649  -11.1332 C   0  0  0  0  0  0  0  0  0  0  0  0
   -7.9520   17.6609   -9.7314 C   0  0  0  0  0  0  0  0  0  0  0  0
   -8.2588   16.7205   -9.0223 O   0  0  0  0  0  0  0  0  0  0  0  0
   -1.1334   16.8052  -11.2041 H   0  0  0  0  0  0  0  0  0  0  0  0
   -9.0201   19.7348   -7.4926 C   0  0  0  0  0  0  0  0  0  0  0  0
   -9.5936   19.3232   -8.8500 C   0  0  0  0  0  0  0  0  0  0  0  0
   -7.5493   11.9680  -11.7676 N   0  0  0  0  0  0  0  0  0  0  0  0
   -8.6086   12.1274  -12.3474 O   0  0  0  0  0  0  0  0  0  0  0  0
   -6.9320   10.9268  -11.9024 O   0  0  0  0  0  0  0  0  0  0  0  0
   -5.9180   13.5049   -7.4455 O   0  0  0  0  0  0  0  0  0  0  0  0
   -5.8269   14.6201   -6.5565 C   0  0  0  0  0  0  0  0  0  0  0  0
 18 19  1  0  0  0
 19  9  1  0  0  0
  9 15  1  0  0  0
  9 10  1  0  0  0
 10 11  2  0  0  0
 10 12  1  0  0  0
 12 13  1  0  0  0
 13 14  2  0  0  0
 13 15  1  0  0  0
 14  1  1  0  0  0
  1  7  1  0  0  0
  1  2  2  0  0  0
  2  3  1  0  0  0
  3 23  1  0  0  0
  3  4  2  0  0  0
 23 24  1  0  0  0
  4  5  1  0  0  0
  4  6  1  0  0  0
  6 20  1  0  0  0
  6  7  2  0  0  0
 20 21  1  0  0  0
 20 22  2  0  0  0
 15 16  2  0  0  0
 12 17  1  0  0  0
  5  8  1  0  0  0
M  CHG 1  20   1
M  CHG 1  21  -1
M  END
> <minimizedAffinity>
-7.98186

$$$$
ZINC000069350273


 20 20  0  0  0  0  0  0  0  0999 V2000
   -6.6721   14.4394   -9.0122 S   0  0  0  0  0  0  0  0  0  0  0  0
   -7.4295   13.2727   -8.7218 O   0  0  0  0  0  0  0  0  0  0  0  0
   -5.3498   14.6465   -8.5348 O   0  0  0  0  0  0  0  0  0  0  0  0
   -7.6266   15.8067   -8.4429 C   0  0  0  0  0  0  0  0  0  0  0  0
   -7.1022   17.0241   -8.4360 C   0  0  0  0  0  0  0  0  0  0  0  0
   -7.9029   18.1711   -7.9584 C   0  0  0  0  0  0  0  0  0  0  0  0
   -8.3438   19.1414   -8.8590 C   0  0  0  0  0  0  0  0  0  0  0  0
   -9.0908   20.2096   -8.4067 C   0  0  0  0  0  0  0  0  0  0  0  0
   -9.4023   20.3201   -7.0633 C   0  0  0  0  0  0  0  0  0  0  0  0
   -8.9679   19.3618   -6.1652 C   0  0  0  0  0  0  0  0  0  0  0  0
   -8.2259   18.2852   -6.6057 C   0  0  0  0  0  0  0  0  0  0  0  0
   -6.5957   14.5483  -10.6628 N   0  0  0  0  0  0  0  0  0  0  0  0
   -5.3028   14.7376  -11.3253 C   0  0  0  0  0  0  0  0  0  0  0  0
   -5.1468   16.2049  -11.7297 C   0  0  0  0  0  0  0  0  0  0  0  0
   -6.2397   17.5382  -13.3951 C   0  0  0  0  0  0  0  0  0  0  0  0
   -5.4870   16.3575  -13.1092 O   0  0  0  0  0  0  0  0  0  0  0  0
   -7.8208   14.4556  -11.4606 C   0  0  0  0  0  0  0  0  0  0  0  0
   -7.6493   13.3805  -12.5356 C   0  0  0  0  0  0  0  0  0  0  0  0
   -7.6877   12.0492  -11.9088 C   0  0  0  0  0  0  0  0  0  0  0  0
   -7.7173   11.0218  -11.4250 N   0  0  0  0  0  0  0  0  0  0  0  0
 15 16  1  0  0  0
 16 14  1  0  0  0
 14 13  1  0  0  0
 13 12  1  0  0  0
 12 17  1  0  0  0
 12  1  1  0  0  0
 17 18  1  0  0  0
 18 19  1  0  0  0
 19 20  3  0  0  0
  1  2  2  0  0  0
  1  3  2  0  0  0
  1  4  1  0  0  0
  4  5  2  0  0  0
  5  6  1  0  0  0
  6 11  2  0  0  0
  6  7  1  0  0  0
  7  8  2  0  0  0
  8  9  1  0  0  0
  9 10  2  0  0  0
 10 11  1  0  0  0
M  END
> <minimizedAffinity>
-6.22766

$$$$
ZINC000009455931


 34 36  0  0  0  0  0  0  0  0999 V2000
  -10.1264   19.0390   -5.0954 C   0  0  0  0  0  0  0  0  0  0  0  0
  -10.2103   20.4775   -5.5501 C   0  0  0  0  0  0  0  0  0  0  0  0
   -9.3999   20.5942   -6.6281 C   0  0  0  0  0  0  0  0  0  0  0  0
   -9.1930   21.7296   -7.3338 O   0  0  0  0  0  0  0  0  0  0  0  0
   -8.7764   19.2841   -6.9109 C   0  0  0  0  0  0  0  0  0  0  0  0
   -7.9973   19.0636   -7.8167 O   0  0  0  0  0  0  0  0  0  0  0  0
   -9.1996   18.3706   -6.0165 N   0  0  0  0  0  0  0  0  0  0  0  0
  -11.3836   18.5279   -2.1943 H   0  0  0  0  0  0  0  0  0  0  0  0
  -10.4285   18.5759   -2.6494 C   0  0  0  0  0  0  0  0  0  0  0  0
   -9.9373   18.5144   -1.3537 C   0  0  0  0  0  0  0  0  0  0  0  0
   -8.6220   18.8516   -1.0981 C   0  0  0  0  0  0  0  0  0  0  0  0
   -7.7960   19.2506   -2.1324 C   0  0  0  0  0  0  0  0  0  0  0  0
   -8.2836   19.3132   -3.4249 C   0  0  0  0  0  0  0  0  0  0  0  0
   -9.5959   18.9711   -3.6866 C   0  0  0  0  0  0  0  0  0  0  0  0
  -12.3356   17.3031   -2.0204 C   0  0  0  0  0  0  0  0  0  0  0  0
  -11.7217   18.2441   -2.9034 O   0  0  0  0  0  0  0  0  0  0  0  0
  -11.0137   21.5414   -4.9410 C   0  0  0  0  0  0  0  0  0  0  0  0
  -12.2127   21.5891   -5.1419 O   0  0  0  0  0  0  0  0  0  0  0  0
  -10.3670   22.5568   -4.0825 C   0  0  0  0  0  0  0  0  0  0  0  0
   -9.9915   22.2349   -2.7767 C   0  0  0  0  0  0  0  0  0  0  0  0
   -9.3887   23.1871   -1.9811 C   0  0  0  0  0  0  0  0  0  0  0  0
   -9.1563   24.4588   -2.4743 C   0  0  0  0  0  0  0  0  0  0  0  0
   -9.5263   24.7848   -3.7676 C   0  0  0  0  0  0  0  0  0  0  0  0
  -10.1238   23.8407   -4.5759 C   0  0  0  0  0  0  0  0  0  0  0  0
   -9.2738   26.1478   -4.2866 N   0  0  0  0  0  0  0  0  0  0  0  0
   -8.9334   27.0358   -3.5256 O   0  0  0  0  0  0  0  0  0  0  0  0
   -9.4062   26.3814   -5.4746 O   0  0  0  0  0  0  0  0  0  0  0  0
   -8.8033   16.9610   -5.9706 C   0  0  0  0  0  0  0  0  0  0  0  0
   -9.6612   16.1579   -6.9503 C   0  0  0  0  0  0  0  0  0  0  0  0
   -8.9770   14.9553   -7.3077 O   0  0  0  0  0  0  0  0  0  0  0  0
   -7.7828   15.1685   -8.0628 C   0  0  0  0  0  0  0  0  0  0  0  0
   -7.7868   14.2569   -9.2916 C   0  0  0  0  0  0  0  0  0  0  0  0
   -7.3612   12.9461   -8.9136 O   0  0  0  0  0  0  0  0  0  0  0  0
   -2.8928   15.4492  -10.2435 H   0  0  0  0  0  0  0  0  0  0  0  0
 15 16  1  0  0  0
 16  9  1  0  0  0
  9 14  2  0  0  0
  9 10  1  0  0  0
 10 11  2  0  0  0
 11 12  1  0  0  0
 12 13  2  0  0  0
 13 14  1  0  0  0
 14  1  1  0  0  0
  1  7  1  0  0  0
  1  2  1  0  0  0
  2 17  1  0  0  0
  2  3  2  0  0  0
 17 18  2  0  0  0
 17 19  1  0  0  0
 19 24  1  0  0  0
 19 20  2  0  0  0
 20 21  1  0  0  0
 21 22  2  0  0  0
 22 23  1  0  0  0
 23 25  1  0  0  0
 23 24  2  0  0  0
 25 26  1  0  0  0
 25 27  2  0  0  0
  3  4  1  0  0  0
  3  5  1  0  0  0
  5  6  2  0  0  0
  5  7  1  0  0  0
  7 28  1  0  0  0
 28 29  1  0  0  0
 29 30  1  0  0  0
 30 31  1  0  0  0
 31 32  1  0  0  0
 32 33  1  0  0  0
  4  8  1  0  0  0
 33 34  1  0  0  0
M  CHG 1  25   1
M  CHG 1  26  -1
M  END
> <minimizedAffinity>
-6.43088

$$$$
ZINC000409339933


 30 31  0  0  0  0  0  0  0  0999 V2000
   -5.9855   16.8481  -11.3124 C   0  0  0  0  0  0  0  0  0  0  0  0
   -6.4163   16.7644  -10.0032 C   0  0  0  0  0  0  0  0  0  0  0  0
   -7.3077   17.7197   -9.5011 C   0  0  0  0  0  0  0  0  0  0  0  0
   -7.7572   18.7542  -10.3286 C   0  0  0  0  0  0  0  0  0  0  0  0
   -7.3221   18.8302  -11.6339 C   0  0  0  0  0  0  0  0  0  0  0  0
   -6.4341   17.8855  -12.1294 C   0  0  0  0  0  0  0  0  0  0  0  0
   -7.7698   17.6363   -8.1078 C   0  0  0  0  0  0  0  0  0  0  0  0
   -8.8605   18.3285   -7.7160 C   0  0  0  0  0  0  0  0  0  0  0  0
   -9.3201   18.2456   -6.3304 C   0  0  0  0  0  0  0  0  0  0  0  0
  -10.4608   17.6363   -6.0610 N   0  0  0  0  0  0  0  0  0  0  0  0
  -10.9141   17.5394   -4.8093 C   0  0  0  0  0  0  0  0  0  0  0  0
  -12.0859   16.9095   -4.5595 O   0  0  0  0  0  0  0  0  0  0  0  0
  -10.1834   18.0838   -3.7664 C   0  0  0  0  0  0  0  0  0  0  0  0
   -8.9731   18.7300   -4.0536 C   0  0  0  0  0  0  0  0  0  0  0  0
   -8.3036   19.2206   -3.1587 O   0  0  0  0  0  0  0  0  0  0  0  0
   -8.5582   18.7954   -5.3362 N   0  0  0  0  0  0  0  0  0  0  0  0
  -13.8984   14.5576  -15.4175 H   0  0  0  0  0  0  0  0  0  0  0  0
  -13.8984   14.5576  -15.4175 H   0  0  0  0  0  0  0  0  0  0  0  0
  -10.6717   17.9845   -2.3723 N   0  0  0  0  0  0  0  0  0  0  0  0
  -11.4106   18.8424   -1.9233 O   0  0  0  0  0  0  0  0  0  0  0  0
  -10.3345   17.0450   -1.6743 O   0  0  0  0  0  0  0  0  0  0  0  0
   -6.0084   17.9658  -13.4170 O   0  0  0  0  0  0  0  0  0  0  0  0
   -6.9466   18.4465  -14.3817 C   0  0  0  0  0  0  0  0  0  0  0  0
   -5.1192   15.9221  -11.8035 O   0  0  0  0  0  0  0  0  0  0  0  0
   -5.1463   14.6255  -11.2031 C   0  0  0  0  0  0  0  0  0  0  0  0
   -5.7734   13.6428  -12.1581 C   0  0  0  0  0  0  0  0  0  0  0  0
   -5.4203   13.6134  -13.3131 O   0  0  0  0  0  0  0  0  0  0  0  0
   -6.7242   12.8000  -11.7254 O   0  0  0  0  0  0  0  0  0  0  0  0
   -8.6959   14.0681  -12.3847 C   0  0  0  0  0  0  0  0  0  0  0  0
   -7.9541   13.3919  -11.2299 C   0  0  0  0  0  0  0  0  0  0  0  0
 29 30  1  0  0  0
 30 28  1  0  0  0
 28 26  1  0  0  0
 26 27  2  0  0  0
 26 25  1  0  0  0
 25 24  1  0  0  0
 24  1  1  0  0  0
  1  6  2  0  0  0
  1  2  1  0  0  0
  2  3  2  0  0  0
  3  7  1  0  0  0
  3  4  1  0  0  0
  7  8  2  0  0  0
  8  9  1  0  0  0
  9 16  1  0  0  0
  9 10  2  0  0  0
 10 11  1  0  0  0
 11 12  1  0  0  0
 11 13  2  0  0  0
 13 19  1  0  0  0
 13 14  1  0  0  0
 19 20  1  0  0  0
 19 21  2  0  0  0
 14 15  2  0  0  0
 14 16  1  0  0  0
  4  5  2  0  0  0
  5  6  1  0  0  0
  6 22  1  0  0  0
 22 23  1  0  0  0
 12 17  1  0  0  0
 16 18  1  0  0  0
M  CHG 1  19   1
M  CHG 1  20  -1
M  END
> <minimizedAffinity>
-7.63617

$$$$
ZINC000078877495


 19 20  0  0  0  0  0  0  0  0999 V2000
   -6.6633   15.5930  -11.9315 N   0  0  0  0  0  0  0  0  0  0  0  0
   -5.9205   16.6749  -12.2380 C   0  0  0  0  0  0  0  0  0  0  0  0
   -4.7133   16.6468  -12.0869 O   0  0  0  0  0  0  0  0  0  0  0  0
   -7.9468   12.5131  -12.3510 H   0  0  0  0  0  0  0  0  0  0  0  0
   -6.5670   17.8863  -12.7538 C   0  0  0  0  0  0  0  0  0  0  0  0
   -6.6344   18.2745  -14.0750 C   0  0  0  0  0  0  0  0  0  0  0  0
   -7.3374   19.4826  -14.1130 C   0  0  0  0  0  0  0  0  0  0  0  0
   -7.6795   19.8044  -12.8424 C   0  0  0  0  0  0  0  0  0  0  0  0
   -7.2220   18.8396  -12.0075 N   0  0  0  0  0  0  0  0  0  0  0  0
   -7.3891   18.8194  -10.5523 C   0  0  0  0  0  0  0  0  0  0  0  0
   -6.0339   14.4235  -11.3132 C   0  0  0  0  0  0  0  0  0  0  0  0
   -6.9840   13.8215  -10.2760 C   0  0  0  0  0  0  0  0  0  0  0  0
   -6.2831   12.6750   -9.5409 C   0  0  0  0  0  0  0  0  0  0  0  0
   -5.9475   11.5667  -10.5422 C   0  0  0  0  0  0  0  0  0  0  0  0
   -7.1466   11.1259  -11.1825 O   0  0  0  0  0  0  0  0  0  0  0  0
   -7.8200   12.1444  -11.9248 C   0  0  0  0  0  0  0  0  0  0  0  0
   -8.2309   13.2760  -10.9790 C   0  0  0  0  0  0  0  0  0  0  0  0
   -5.8768   15.6976   -8.4551 C   0  0  0  0  0  0  0  0  0  0  0  0
   -7.4697   15.0997   -9.0841 S   0  0  0  0  0  0  0  0  0  0  0  0
 18 19  1  0  0  0
 19 12  1  0  0  0
 12 17  1  0  0  0
 12 11  1  0  0  0
 12 13  1  0  0  0
 11  1  1  0  0  0
  1  2  1  0  0  0
  2  3  2  0  0  0
  2  5  1  0  0  0
  5  9  1  0  0  0
  5  6  2  0  0  0
  6  7  1  0  0  0
  7  8  2  0  0  0
  8  9  1  0  0  0
  9 10  1  0  0  0
 13 14  1  0  0  0
 14 15  1  0  0  0
 15 16  1  0  0  0
 16 17  1  0  0  0
  1  4  1  0  0  0
M  END
> <minimizedAffinity>
-6.12879

$$$$
ZINC000019078099


 28 31  0  0  0  0  0  0  0  0999 V2000
   -7.0855   16.0598  -10.8223 C   0  0  0  0  0  0  0  0  0  0  0  0
   -7.7964   15.6077  -11.6948 O   0  0  0  0  0  0  0  0  0  0  0  0
   -7.2235   15.6322   -9.5516 N   0  0  0  0  0  0  0  0  0  0  0  0
   -6.4468   16.2468   -8.4664 C   0  0  0  0  0  0  0  0  0  0  0  0
   -7.4111   16.7015   -7.3663 C   0  0  0  0  0  0  0  0  0  0  0  0
   -8.2742   15.5161   -6.9281 C   0  0  0  0  0  0  0  0  0  0  0  0
   -9.0985   15.0162   -8.1166 C   0  0  0  0  0  0  0  0  0  0  0  0
   -8.1579   14.5466   -9.2243 C   0  0  0  0  0  0  0  0  0  0  0  0
   -9.2005   15.9513   -5.8220 C   0  0  0  0  0  0  0  0  0  0  0  0
  -10.1626   16.8107   -6.0919 N   0  0  0  0  0  0  0  0  0  0  0  0
  -10.9934   17.2160   -5.1452 C   0  0  0  0  0  0  0  0  0  0  0  0
  -10.8401   16.7233   -3.8571 C   0  0  0  0  0  0  0  0  0  0  0  0
  -11.7743   17.1816   -2.7725 C   0  0  0  0  0  0  0  0  0  0  0  0
  -11.7354   16.2546   -1.6366 N   0  0  0  0  0  0  0  0  0  0  0  0
  -10.3408   16.0855   -1.2009 C   0  0  0  0  0  0  0  0  0  0  0  0
   -9.5996   15.2438   -2.2416 C   0  0  0  0  0  0  0  0  0  0  0  0
   -9.8227   15.8229   -3.6133 C   0  0  0  0  0  0  0  0  0  0  0  0
   -9.0308   15.4585   -4.6118 N   0  0  0  0  0  0  0  0  0  0  0  0
   -6.3404   16.9469  -11.3564 H   0  0  0  0  0  0  0  0  0  0  0  0
   -6.3404   16.9469  -11.3564 H   0  0  0  0  0  0  0  0  0  0  0  0
   -4.9702   16.4756  -12.0478 C   0  0  0  0  0  0  0  0  0  0  0  0
   -6.0479   17.0995  -11.1589 C   0  0  0  0  0  0  0  0  0  0  0  0
   -6.6836   18.2116  -11.8699 N   0  0  0  0  0  0  0  0  0  0  0  0
   -6.4407   18.5402  -13.2794 C   0  0  0  0  0  0  0  0  0  0  0  0
   -7.6091   19.4614  -13.6951 C   0  0  0  0  0  0  0  0  0  0  0  0
   -8.0233   20.0769  -12.3386 C   0  0  0  0  0  0  0  0  0  0  0  0
   -7.5687   19.0585  -11.3165 C   0  0  0  0  0  0  0  0  0  0  0  0
   -7.9427   19.0168  -10.1636 O   0  0  0  0  0  0  0  0  0  0  0  0
 21 22  1  0  0  0
 22  1  1  0  0  0
 22 23  1  0  0  0
  1  2  2  0  0  0
  1  3  1  0  0  0
  3  8  1  0  0  0
  3  4  1  0  0  0
  4  5  1  0  0  0
  5  6  1  0  0  0
  6  9  1  0  0  0
  6  7  1  0  0  0
  9 18  1  0  0  0
  9 10  2  0  0  0
 10 11  1  0  0  0
 11 12  2  0  0  0
 12 17  1  0  0  0
 12 13  1  0  0  0
 13 14  1  0  0  0
 14 15  1  0  0  0
 15 16  1  0  0  0
 16 17  1  0  0  0
 17 18  2  0  0  0
  7  8  1  0  0  0
 23 27  1  0  0  0
 23 24  1  0  0  0
 24 25  1  0  0  0
 25 26  1  0  0  0
 26 27  1  0  0  0
 27 28  2  0  0  0
 14 19  1  0  0  0
 14 20  1  0  0  0
M  CHG 1  14   1
M  END
> <minimizedAffinity>
-7.92331

$$$$
ZINC000263587044


 31 34  0  0  0  0  0  0  0  0999 V2000
   -9.4291   18.8982   -4.9502 O   0  0  0  0  0  0  0  0  0  0  0  0
   -9.0945   18.2308   -5.9108 C   0  0  0  0  0  0  0  0  0  0  0  0
   -7.9884   18.6012   -6.5741 N   0  0  0  0  0  0  0  0  0  0  0  0
   -7.4684   17.8628   -7.5031 C   0  0  0  0  0  0  0  0  0  0  0  0
   -6.5437   18.0021   -8.4708 O   0  0  0  0  0  0  0  0  0  0  0  0
   -7.1243   17.4592   -9.6924 C   0  0  0  0  0  0  0  0  0  0  0  0
   -7.8544   18.5710  -10.4028 C   0  0  0  0  0  0  0  0  0  0  0  0
   -8.7399   19.1966   -9.8602 O   0  0  0  0  0  0  0  0  0  0  0  0
   -7.4747   18.8386  -11.6746 N   0  0  0  0  0  0  0  0  0  0  0  0
   -6.4970   18.1495  -12.2743 C   0  0  0  0  0  0  0  0  0  0  0  0
   -6.2197   18.4549  -13.4170 O   0  0  0  0  0  0  0  0  0  0  0  0
   -5.7993   17.1519  -11.7188 N   0  0  0  0  0  0  0  0  0  0  0  0
   -6.0363   16.7406  -10.4509 C   0  0  0  0  0  0  0  0  0  0  0  0
   -5.4038   15.8365   -9.9486 O   0  0  0  0  0  0  0  0  0  0  0  0
   -8.1673   16.4103   -9.2617 C   0  0  0  0  0  0  0  0  0  0  0  0
   -8.0627   16.4695   -7.7224 C   0  0  0  0  0  0  0  0  0  0  0  0
   -9.4394   16.2552   -7.1367 C   0  0  0  0  0  0  0  0  0  0  0  0
  -10.1317   15.3126   -7.4563 O   0  0  0  0  0  0  0  0  0  0  0  0
   -9.8530   17.1728   -6.2304 N   0  0  0  0  0  0  0  0  0  0  0  0
   -9.5518   18.8740   -4.9792 H   0  0  0  0  0  0  0  0  0  0  0  0
   -9.5518   18.8740   -4.9792 H   0  0  0  0  0  0  0  0  0  0  0  0
   -9.5518   18.8740   -4.9792 H   0  0  0  0  0  0  0  0  0  0  0  0
   -7.7988   15.0422   -9.7750 C   0  0  0  0  0  0  0  0  0  0  0  0
   -7.1245   14.1554   -8.9567 C   0  0  0  0  0  0  0  0  0  0  0  0
   -6.7866   12.9004   -9.4275 C   0  0  0  0  0  0  0  0  0  0  0  0
   -7.1233   12.5321  -10.7166 C   0  0  0  0  0  0  0  0  0  0  0  0
   -7.7989   13.4184  -11.5346 C   0  0  0  0  0  0  0  0  0  0  0  0
   -8.1402   14.6720  -11.0624 C   0  0  0  0  0  0  0  0  0  0  0  0
   -6.7610   11.1884  -11.2209 N   0  0  0  0  0  0  0  0  0  0  0  0
   -5.9384   10.5159  -10.6257 O   0  0  0  0  0  0  0  0  0  0  0  0
   -7.2855   10.7554  -12.2313 O   0  0  0  0  0  0  0  0  0  0  0  0
  1  2  2  0  0  0
  2 19  1  0  0  0
  2  3  1  0  0  0
  3  4  2  0  0  0
  4 16  1  0  0  0
  4  5  1  0  0  0
  6  5  1  0  0  0
  6 13  1  0  0  0
  6  7  1  0  0  0
  6 15  1  0  0  0
  7  8  2  0  0  0
  7  9  1  0  0  0
  9 10  1  0  0  0
 10 11  2  0  0  0
 10 12  1  0  0  0
 12 13  1  0  0  0
 13 14  2  0  0  0
 15 23  1  0  0  0
 15 16  1  0  0  0
 23 28  1  0  0  0
 23 24  2  0  0  0
 24 25  1  0  0  0
 25 26  2  0  0  0
 26 29  1  0  0  0
 26 27  1  0  0  0
 29 30  1  0  0  0
 29 31  2  0  0  0
 27 28  2  0  0  0
 16 17  1  0  0  0
 17 18  2  0  0  0
 17 19  1  0  0  0
  9 20  1  0  0  0
 12 21  1  0  0  0
 19 22  1  0  0  0
M  CHG 1  29   1
M  CHG 1  30  -1
M  END
> <minimizedAffinity>
-8.90940

$$$$
ZINC000008740961


 30 33  0  0  0  0  0  0  0  0999 V2000
   -5.9661   16.0711  -12.1880 C   0  0  0  0  0  0  0  0  0  0  0  0
   -6.5596   17.1823  -13.0292 C   0  0  0  0  0  0  0  0  0  0  0  0
   -6.7268   17.1737  -14.2252 O   0  0  0  0  0  0  0  0  0  0  0  0
   -6.8972   18.2876  -12.0888 C   0  0  0  0  0  0  0  0  0  0  0  0
   -7.3951   19.3434  -12.4207 O   0  0  0  0  0  0  0  0  0  0  0  0
   -6.5795   17.9627  -10.8294 N   0  0  0  0  0  0  0  0  0  0  0  0
   -5.9972   16.6226  -10.7536 C   0  0  0  0  0  0  0  0  0  0  0  0
   -6.8491   15.7392   -9.8791 C   0  0  0  0  0  0  0  0  0  0  0  0
   -6.2713   14.9163   -8.9244 C   0  0  0  0  0  0  0  0  0  0  0  0
   -7.0845   14.1199   -8.1405 C   0  0  0  0  0  0  0  0  0  0  0  0
   -8.3942   14.1366   -8.2931 N   0  0  0  0  0  0  0  0  0  0  0  0
   -8.9781   14.9064   -9.1906 C   0  0  0  0  0  0  0  0  0  0  0  0
   -8.2298   15.7343  -10.0060 C   0  0  0  0  0  0  0  0  0  0  0  0
   -7.9575   14.8995  -12.6685 O   0  0  0  0  0  0  0  0  0  0  0  0
   -6.8071   14.8249  -12.2918 C   0  0  0  0  0  0  0  0  0  0  0  0
   -6.2313   13.5183  -11.9422 C   0  0  0  0  0  0  0  0  0  0  0  0
   -7.0676   12.4553  -11.5827 C   0  0  0  0  0  0  0  0  0  0  0  0
   -6.5218   11.2336  -11.2562 C   0  0  0  0  0  0  0  0  0  0  0  0
   -5.1463   11.0556  -11.2827 C   0  0  0  0  0  0  0  0  0  0  0  0
   -4.6172    9.8549  -10.9610 F   0  0  0  0  0  0  0  0  0  0  0  0
   -4.3116   12.1049  -11.6387 C   0  0  0  0  0  0  0  0  0  0  0  0
   -4.8450   13.3301  -11.9731 C   0  0  0  0  0  0  0  0  0  0  0  0
   -6.7885   18.8383   -9.6736 C   0  0  0  0  0  0  0  0  0  0  0  0
   -8.2557   19.2686   -9.6184 C   0  0  0  0  0  0  0  0  0  0  0  0
   -8.7741   19.0678   -8.2586 N   0  0  0  0  0  0  0  0  0  0  0  0
   -8.9797   20.3545   -7.5779 C   0  0  0  0  0  0  0  0  0  0  0  0
   -9.5750   20.1020   -6.1901 C   0  0  0  0  0  0  0  0  0  0  0  0
   -8.7080   19.2335   -5.4558 O   0  0  0  0  0  0  0  0  0  0  0  0
   -8.4862   17.9709   -6.0898 C   0  0  0  0  0  0  0  0  0  0  0  0
   -7.8799   18.2017   -7.4765 C   0  0  0  0  0  0  0  0  0  0  0  0
 14 15  2  0  0  0
 15 16  1  0  0  0
 15  1  1  0  0  0
 16 22  1  0  0  0
 16 17  2  0  0  0
 17 18  1  0  0  0
 18 19  2  0  0  0
 19 20  1  0  0  0
 19 21  1  0  0  0
 21 22  2  0  0  0
  1  7  1  0  0  0
  1  2  1  0  0  0
  2  3  2  0  0  0
  2  4  1  0  0  0
  4  5  2  0  0  0
  4  6  1  0  0  0
  6 23  1  0  0  0
  6  7  1  0  0  0
 23 24  1  0  0  0
 24 25  1  0  0  0
 25 30  1  0  0  0
 25 26  1  0  0  0
 26 27  1  0  0  0
 27 28  1  0  0  0
 28 29  1  0  0  0
 29 30  1  0  0  0
  7  8  1  0  0  0
  8 13  1  0  0  0
  8  9  2  0  0  0
  9 10  1  0  0  0
 10 11  2  0  0  0
 11 12  1  0  0  0
 12 13  2  0  0  0
M  END
> <minimizedAffinity>
-7.48280

$$$$
ZINC000003954529


 21 21  0  0  0  0  0  0  0  0999 V2000
   -7.1670   15.7068  -12.6642 N   0  0  0  0  0  0  0  0  0  0  0  0
   -7.4026   13.4309  -12.2536 H   0  0  0  0  0  0  0  0  0  0  0  0
   -8.8843   13.5775  -12.6925 C   0  0  0  0  0  0  0  0  0  0  0  0
   -7.5306   13.5008  -12.0346 C   0  0  0  0  0  0  0  0  0  0  0  0
   -6.7562   14.5201  -12.0432 N   0  0  0  0  0  0  0  0  0  0  0  0
   -6.9987   11.9643  -11.2306 P   0  0  0  0  0  0  0  0  0  0  0  0
   -5.5251   11.6758  -11.5947 O   0  0  0  0  0  0  0  0  0  0  0  0
   -7.8867   10.7960  -11.7139 O   0  0  0  0  0  0  0  0  0  0  0  0
   -7.1367   12.1184   -9.6340 O   0  0  0  0  0  0  0  0  0  0  0  0
   -7.5261   13.5030  -12.0341 H   0  0  0  0  0  0  0  0  0  0  0  0
   -7.5261   13.5030  -12.0341 H   0  0  0  0  0  0  0  0  0  0  0  0
   -6.3368   17.1137  -12.3928 S   0  0  0  0  0  0  0  0  0  0  0  0
   -5.0620   16.7369  -11.8908 O   0  0  0  0  0  0  0  0  0  0  0  0
   -6.5093   17.9121  -13.5556 O   0  0  0  0  0  0  0  0  0  0  0  0
   -7.1574   17.9592  -11.0826 C   0  0  0  0  0  0  0  0  0  0  0  0
   -7.1590   17.4234   -9.8083 C   0  0  0  0  0  0  0  0  0  0  0  0
   -7.8028   18.0866   -8.7805 C   0  0  0  0  0  0  0  0  0  0  0  0
   -8.4446   19.2859   -9.0267 C   0  0  0  0  0  0  0  0  0  0  0  0
   -9.1468   20.0087   -7.9062 C   0  0  0  0  0  0  0  0  0  0  0  0
   -8.4418   19.8224  -10.3007 C   0  0  0  0  0  0  0  0  0  0  0  0
   -7.7948   19.1610  -11.3278 C   0  0  0  0  0  0  0  0  0  0  0  0
  3  4  1  0  0  0
  4  5  2  0  0  0
  5  1  1  0  0  0
  1 12  1  0  0  0
 12 13  2  0  0  0
 12 14  2  0  0  0
 12 15  1  0  0  0
 15 21  2  0  0  0
 15 16  1  0  0  0
 16 17  2  0  0  0
 17 18  1  0  0  0
 18 19  1  0  0  0
 18 20  2  0  0  0
 20 21  1  0  0  0
  6  4  1  0  0  0
  6  7  2  0  0  0
  6  8  1  0  0  0
  6  9  1  0  0  0
  1  2  1  0  0  0
  8 10  1  0  0  0
  9 11  1  0  0  0
M  END
> <minimizedAffinity>
-7.62041

$$$$
ZINC000020327510


 31 32  0  0  0  0  0  0  0  0999 V2000
   -6.8276   14.2250  -11.4235 N   0  0  0  0  0  0  0  0  0  0  0  0
   -6.0106   14.5553  -12.4336 C   0  0  0  0  0  0  0  0  0  0  0  0
   -5.6274   13.6726  -13.1761 O   0  0  0  0  0  0  0  0  0  0  0  0
   -5.5939   15.8074  -12.6683 N   0  0  0  0  0  0  0  0  0  0  0  0
   -5.9789   16.8369  -11.8863 C   0  0  0  0  0  0  0  0  0  0  0  0
   -5.5942   17.9693  -12.1099 O   0  0  0  0  0  0  0  0  0  0  0  0
   -6.8783   16.5530  -10.7538 C   0  0  0  0  0  0  0  0  0  0  0  0
   -7.3145   17.5572   -9.9095 C   0  0  0  0  0  0  0  0  0  0  0  0
   -7.2966   15.1526  -10.5638 C   0  0  0  0  0  0  0  0  0  0  0  0
   -8.0379   14.8404   -9.6511 O   0  0  0  0  0  0  0  0  0  0  0  0
   -9.2846   12.8520  -12.2064 H   0  0  0  0  0  0  0  0  0  0  0  0
   -6.7508   18.9486  -10.0395 C   0  0  0  0  0  0  0  0  0  0  0  0
   -7.8733   19.9214  -10.4062 C   0  0  0  0  0  0  0  0  0  0  0  0
   -8.2440   17.2914   -8.9701 N   0  0  0  0  0  0  0  0  0  0  0  0
  -11.5904   16.6735  -13.4069 H   0  0  0  0  0  0  0  0  0  0  0  0
   -7.9728   17.5991   -7.5637 C   0  0  0  0  0  0  0  0  0  0  0  0
   -9.1336   17.1021   -6.6998 C   0  0  0  0  0  0  0  0  0  0  0  0
   -9.7168   18.2329   -5.9656 N   0  0  0  0  0  0  0  0  0  0  0  0
   -9.0148   19.4840   -6.2817 C   0  0  0  0  0  0  0  0  0  0  0  0
   -9.7609   20.6600   -5.6426 C   0  0  0  0  0  0  0  0  0  0  0  0
   -9.9250   20.3845   -4.2071 N   0  0  0  0  0  0  0  0  0  0  0  0
  -10.4967   19.0896   -3.8080 C   0  0  0  0  0  0  0  0  0  0  0  0
   -9.7215   17.9753   -4.5194 C   0  0  0  0  0  0  0  0  0  0  0  0
   -9.5617   21.2949   -3.2821 C   0  0  0  0  0  0  0  0  0  0  0  0
   -8.7205   20.7981   -1.8762 S   0  0  0  0  0  0  0  0  0  0  0  0
   -9.8607   22.5965   -3.4638 N   0  0  0  0  0  0  0  0  0  0  0  0
  -11.1807   23.1048   -3.0826 C   0  0  0  0  0  0  0  0  0  0  0  0
   -0.9648   16.9476  -11.1931 H   0  0  0  0  0  0  0  0  0  0  0  0
   -7.2252   12.8253  -11.2532 C   0  0  0  0  0  0  0  0  0  0  0  0
   -5.5938   11.0643  -10.8068 C   0  0  0  0  0  0  0  0  0  0  0  0
   -6.2274   12.1238  -10.3681 C   0  0  0  0  0  0  0  0  0  0  0  0
 30 31  2  0  0  0
 31 29  1  0  0  0
 29  1  1  0  0  0
  1  9  1  0  0  0
  1  2  1  0  0  0
  2  3  2  0  0  0
  2  4  1  0  0  0
  4  5  1  0  0  0
  5  6  2  0  0  0
  5  7  1  0  0  0
  7  8  2  0  0  0
  7  9  1  0  0  0
  8 12  1  0  0  0
  8 14  1  0  0  0
 12 13  1  0  0  0
 14 16  1  0  0  0
 16 17  1  0  0  0
 17 18  1  0  0  0
 18 23  1  0  0  0
 18 19  1  0  0  0
 19 20  1  0  0  0
 20 21  1  0  0  0
 21 24  1  0  0  0
 21 22  1  0  0  0
 24 25  2  0  0  0
 24 26  1  0  0  0
 26 27  1  0  0  0
 22 23  1  0  0  0
  9 10  2  0  0  0
  4 11  1  0  0  0
 14 15  1  0  0  0
 26 28  1  0  0  0
M  END
> <minimizedAffinity>
-6.63072

$$$$
ZINC000001694684


 23 24  0  0  0  0  0  0  0  0999 V2000
   -5.8040   17.0594  -11.6209 C   0  0  0  0  0  0  0  0  0  0  0  0
   -4.9226   17.3888  -12.6965 O   0  0  0  0  0  0  0  0  0  0  0  0
   -6.8805   10.7967  -12.6886 H   0  0  0  0  0  0  0  0  0  0  0  0
   -6.5547   12.8541  -11.6305 C   0  0  0  0  0  0  0  0  0  0  0  0
   -5.2979   13.3312  -11.3082 C   0  0  0  0  0  0  0  0  0  0  0  0
   -5.0551   14.6920  -11.3051 C   0  0  0  0  0  0  0  0  0  0  0  0
   -6.0687   15.5758  -11.6247 C   0  0  0  0  0  0  0  0  0  0  0  0
   -7.3252   15.0987  -11.9484 C   0  0  0  0  0  0  0  0  0  0  0  0
   -7.5671   13.7377  -11.9552 C   0  0  0  0  0  0  0  0  0  0  0  0
   -5.8842   10.6123  -11.6777 O   0  0  0  0  0  0  0  0  0  0  0  0
   -6.8148   11.3970  -11.6339 N   0  0  0  0  0  0  0  0  0  0  0  0
   -7.9592   10.9825  -11.5879 O   0  0  0  0  0  0  0  0  0  0  0  0
   -7.1241   17.8134  -11.7942 C   0  0  0  0  0  0  0  0  0  0  0  0
   -7.4047   18.5941  -10.5819 N   0  0  0  0  0  0  0  0  0  0  0  0
   -7.9150   17.7322   -9.5066 C   0  0  0  0  0  0  0  0  0  0  0  0
   -8.1190   18.5674   -8.2404 C   0  0  0  0  0  0  0  0  0  0  0  0
   -9.0576   19.6618   -8.5244 N   0  0  0  0  0  0  0  0  0  0  0  0
   -8.5473   20.5237   -9.5997 C   0  0  0  0  0  0  0  0  0  0  0  0
   -8.3434   19.6886  -10.8659 C   0  0  0  0  0  0  0  0  0  0  0  0
   -9.3382   20.4427   -7.3122 C   0  0  0  0  0  0  0  0  0  0  0  0
   -9.0010   19.6055   -6.0769 C   0  0  0  0  0  0  0  0  0  0  0  0
   -9.3783   20.3211   -4.8988 O   0  0  0  0  0  0  0  0  0  0  0  0
   -2.3970   30.6889  -10.1475 H   0  0  0  0  0  0  0  0  0  0  0  0
 10 11  1  0  0  0
 11 12  2  0  0  0
 11  4  1  0  0  0
  4  9  2  0  0  0
  4  5  1  0  0  0
  5  6  2  0  0  0
  6  7  1  0  0  0
  7  1  1  0  0  0
  7  8  2  0  0  0
  1  2  1  0  0  0
  1 13  1  0  0  0
 13 14  1  0  0  0
 14 19  1  0  0  0
 14 15  1  0  0  0
 15 16  1  0  0  0
 16 17  1  0  0  0
 17 20  1  0  0  0
 17 18  1  0  0  0
 20 21  1  0  0  0
 21 22  1  0  0  0
 18 19  1  0  0  0
  8  9  1  0  0  0
  2  3  1  0  0  0
 22 23  1  0  0  0
M  CHG 1  10  -1
M  CHG 1  11   1
M  END
> <minimizedAffinity>
-6.89535

$$$$
ZINC000095520634


 31 34  0  0  0  0  0  0  0  0999 V2000
   -7.1158   13.8992   -9.4521 C   0  0  0  0  0  0  0  0  0  0  0  0
   -8.2421   13.7029   -9.8567 O   0  0  0  0  0  0  0  0  0  0  0  0
   -6.4077   14.9494   -9.9128 N   0  0  0  0  0  0  0  0  0  0  0  0
   -4.9941   14.7991  -10.2909 C   0  0  0  0  0  0  0  0  0  0  0  0
   -4.8411   15.0716  -11.7923 C   0  0  0  0  0  0  0  0  0  0  0  0
   -5.6214   16.3127  -12.1464 C   0  0  0  0  0  0  0  0  0  0  0  0
   -6.5960   16.8455  -11.3770 C   0  0  0  0  0  0  0  0  0  0  0  0
   -7.0643   17.9457  -12.0253 N   0  0  0  0  0  0  0  0  0  0  0  0
   -6.3578   18.0583  -13.1739 C   0  0  0  0  0  0  0  0  0  0  0  0
   -5.4969   17.0764  -13.2360 N   0  0  0  0  0  0  0  0  0  0  0  0
   -7.0301   16.2755  -10.0568 C   0  0  0  0  0  0  0  0  0  0  0  0
   -8.5509   16.1386  -10.0207 C   0  0  0  0  0  0  0  0  0  0  0  0
   -8.9730   15.5060   -8.6903 C   0  0  0  0  0  0  0  0  0  0  0  0
   -8.4052   16.2967   -7.5897 N   0  0  0  0  0  0  0  0  0  0  0  0
   -9.1964   16.7762   -6.6096 C   0  0  0  0  0  0  0  0  0  0  0  0
  -10.3889   16.5562   -6.6308 O   0  0  0  0  0  0  0  0  0  0  0  0
   -6.9587   16.5546   -7.5772 C   0  0  0  0  0  0  0  0  0  0  0  0
   -6.5575   17.1779   -8.9184 C   0  0  0  0  0  0  0  0  0  0  0  0
   -7.4328   11.5860   -8.8958 H   0  0  0  0  0  0  0  0  0  0  0  0
   -6.5080   12.9690   -8.4340 C   0  0  0  0  0  0  0  0  0  0  0  0
   -5.7870   11.2298   -9.9175 C   0  0  0  0  0  0  0  0  0  0  0  0
   -6.6736   11.6169   -8.8656 O   0  0  0  0  0  0  0  0  0  0  0  0
   -8.5993   17.5855   -5.4874 C   0  0  0  0  0  0  0  0  0  0  0  0
   -9.4694   18.8169   -5.2276 C   0  0  0  0  0  0  0  0  0  0  0  0
   -9.2766   19.2828   -3.7824 C   0  0  0  0  0  0  0  0  0  0  0  0
  -10.0491   20.4661   -3.5614 O   0  0  0  0  0  0  0  0  0  0  0  0
   -9.7202   21.5399   -4.4472 C   0  0  0  0  0  0  0  0  0  0  0  0
   -9.9138   21.0782   -5.8937 C   0  0  0  0  0  0  0  0  0  0  0  0
   -9.0778   19.8962   -6.1446 N   0  0  0  0  0  0  0  0  0  0  0  0
   -9.9846   11.4951   -8.6432 H   0  0  0  0  0  0  0  0  0  0  0  0
   -9.9846   11.4951   -8.6432 H   0  0  0  0  0  0  0  0  0  0  0  0
 21 22  1  0  0  0
 22 20  1  0  0  0
 20  1  1  0  0  0
  1  2  2  0  0  0
  1  3  1  0  0  0
  3  4  1  0  0  0
  4  5  1  0  0  0
  5  6  1  0  0  0
  6 10  1  0  0  0
  6  7  2  0  0  0
  7  8  1  0  0  0
  7 11  1  0  0  0
  8  9  1  0  0  0
  9 10  2  0  0  0
 11  3  1  0  0  0
 11 18  1  0  0  0
 11 12  1  0  0  0
 12 13  1  0  0  0
 13 14  1  0  0  0
 14 15  1  0  0  0
 14 17  1  0  0  0
 15 16  2  0  0  0
 15 23  1  0  0  0
 23 24  1  0  0  0
 24 29  1  0  0  0
 24 25  1  0  0  0
 25 26  1  0  0  0
 26 27  1  0  0  0
 27 28  1  0  0  0
 28 29  1  0  0  0
 17 18  1  0  0  0
  8 19  1  0  0  0
 29 30  1  0  0  0
 29 31  1  0  0  0
M  CHG 1  29   1
M  END
> <minimizedAffinity>
-7.41821

$$$$
ZINC000101096716


 28 28  0  0  0  0  0  0  0  0999 V2000
   -5.6362   14.2877   -9.5259 C   0  0  0  0  0  0  0  0  0  0  0  0
   -4.8168   14.2921   -8.6296 O   0  0  0  0  0  0  0  0  0  0  0  0
   -6.2595   11.9670  -10.0958 C   0  0  0  0  0  0  0  0  0  0  0  0
   -6.8716   11.8604   -8.9012 O   0  0  0  0  0  0  0  0  0  0  0  0
   -5.6831   13.1658  -10.4726 C   0  0  0  0  0  0  0  0  0  0  0  0
   -6.6581    9.1585  -10.5591 H   0  0  0  0  0  0  0  0  0  0  0  0
   -6.2035   10.7959  -11.0092 C   0  0  0  0  0  0  0  0  0  0  0  0
   -6.9255   10.7512  -11.9832 O   0  0  0  0  0  0  0  0  0  0  0  0
   -4.5617    9.2926  -11.8705 C   0  0  0  0  0  0  0  0  0  0  0  0
   -5.3515    9.7844  -10.7557 O   0  0  0  0  0  0  0  0  0  0  0  0
   -5.1155   13.3180  -11.8246 C   0  0  0  0  0  0  0  0  0  0  0  0
   -4.1248   12.6901  -12.1418 O   0  0  0  0  0  0  0  0  0  0  0  0
   -5.6955   14.1535  -12.7087 O   0  0  0  0  0  0  0  0  0  0  0  0
   -7.1285   14.0191  -12.9004 C   0  0  0  0  0  0  0  0  0  0  0  0
   -6.5950   15.4218   -9.6654 C   0  0  0  0  0  0  0  0  0  0  0  0
   -7.7899   15.2185   -9.5965 O   0  0  0  0  0  0  0  0  0  0  0  0
   -6.1348   16.6724   -9.8678 N   0  0  0  0  0  0  0  0  0  0  0  0
   -4.7535    9.0313   -9.6360 H   0  0  0  0  0  0  0  0  0  0  0  0
   -7.0234   17.7506   -9.8786 C   0  0  0  0  0  0  0  0  0  0  0  0
   -7.6188   18.1739   -8.6970 C   0  0  0  0  0  0  0  0  0  0  0  0
   -8.4966   19.2401   -8.7113 C   0  0  0  0  0  0  0  0  0  0  0  0
   -8.7832   19.8859   -9.8999 C   0  0  0  0  0  0  0  0  0  0  0  0
   -8.1922   19.4670  -11.0782 C   0  0  0  0  0  0  0  0  0  0  0  0
   -7.3092   18.4055  -11.0703 C   0  0  0  0  0  0  0  0  0  0  0  0
   -6.6658   17.9498  -12.3545 C   0  0  0  0  0  0  0  0  0  0  0  0
   -9.1312   19.6921   -7.4527 N   0  0  0  0  0  0  0  0  0  0  0  0
   -9.3949   18.8850   -6.5795 O   0  0  0  0  0  0  0  0  0  0  0  0
   -9.3896   20.8712   -7.2902 O   0  0  0  0  0  0  0  0  0  0  0  0
  9 10  1  0  0  0
 10  7  1  0  0  0
  7  8  2  0  0  0
  7  3  1  0  0  0
  3  4  1  0  0  0
  3  5  2  0  0  0
  5 11  1  0  0  0
  5  1  1  0  0  0
 11 12  2  0  0  0
 11 13  1  0  0  0
 13 14  1  0  0  0
  1  2  2  0  0  0
  1 15  1  0  0  0
 15 16  2  0  0  0
 15 17  1  0  0  0
 17 19  1  0  0  0
 19 24  2  0  0  0
 19 20  1  0  0  0
 20 21  2  0  0  0
 21 26  1  0  0  0
 21 22  1  0  0  0
 26 27  1  0  0  0
 26 28  2  0  0  0
 22 23  2  0  0  0
 23 24  1  0  0  0
 24 25  1  0  0  0
  4  6  1  0  0  0
 17 18  1  0  0  0
M  CHG 1  26   1
M  CHG 1  27  -1
M  END
> <minimizedAffinity>
-8.00943

$$$$
ZINC000030013670


 26 29  0  0  0  0  0  0  0  0999 V2000
  -10.1040   19.5160   -8.9027 O   0  0  0  0  0  0  0  0  0  0  0  0
   -9.1231   18.8822   -8.5641 C   0  0  0  0  0  0  0  0  0  0  0  0
   -8.0067   18.9143   -9.3183 N   0  0  0  0  0  0  0  0  0  0  0  0
   -6.8113   18.1503   -8.9303 C   0  0  0  0  0  0  0  0  0  0  0  0
   -6.3544   17.3173  -10.1325 C   0  0  0  0  0  0  0  0  0  0  0  0
   -6.1787   18.1972  -11.2956 N   0  0  0  0  0  0  0  0  0  0  0  0
   -7.4496   18.8194  -11.6899 C   0  0  0  0  0  0  0  0  0  0  0  0
   -7.9534   19.7092  -10.5547 C   0  0  0  0  0  0  0  0  0  0  0  0
   -9.1572   18.0733   -7.3306 C   0  0  0  0  0  0  0  0  0  0  0  0
   -9.3896   16.6955   -7.3992 C   0  0  0  0  0  0  0  0  0  0  0  0
   -9.5834   16.0998   -8.5961 F   0  0  0  0  0  0  0  0  0  0  0  0
   -9.4199   15.9453   -6.2385 C   0  0  0  0  0  0  0  0  0  0  0  0
   -9.2213   16.5531   -5.0122 C   0  0  0  0  0  0  0  0  0  0  0  0
   -8.9914   17.9147   -4.9353 C   0  0  0  0  0  0  0  0  0  0  0  0
   -8.9516   18.6790   -6.0863 C   0  0  0  0  0  0  0  0  0  0  0  0
   -8.7264   20.0088   -6.0091 F   0  0  0  0  0  0  0  0  0  0  0  0
   -5.5777   17.4688  -12.4208 C   0  0  0  0  0  0  0  0  0  0  0  0
   -5.8156   15.9909  -12.2470 C   0  0  0  0  0  0  0  0  0  0  0  0
   -4.7939   15.1711  -11.8052 C   0  0  0  0  0  0  0  0  0  0  0  0
   -5.0054   13.8167  -11.6477 C   0  0  0  0  0  0  0  0  0  0  0  0
   -6.2510   13.2636  -11.9326 C   0  0  0  0  0  0  0  0  0  0  0  0
   -6.6677   11.9694  -11.8659 O   0  0  0  0  0  0  0  0  0  0  0  0
   -8.1046   11.9354  -11.8320 C   0  0  0  0  0  0  0  0  0  0  0  0
   -8.4958   13.2296  -12.5837 C   0  0  0  0  0  0  0  0  0  0  0  0
   -7.2719   14.0988  -12.3691 C   0  0  0  0  0  0  0  0  0  0  0  0
   -7.0592   15.4505  -12.5235 C   0  0  0  0  0  0  0  0  0  0  0  0
  1  2  2  0  0  0
  2  9  1  0  0  0
  2  3  1  0  0  0
  9 15  1  0  0  0
  9 10  2  0  0  0
 10 11  1  0  0  0
 10 12  1  0  0  0
 12 13  2  0  0  0
 13 14  1  0  0  0
 14 15  2  0  0  0
 15 16  1  0  0  0
  3  8  1  0  0  0
  3  4  1  0  0  0
  4  5  1  0  0  0
  5  6  1  0  0  0
  6 17  1  0  0  0
  6  7  1  0  0  0
 17 18  1  0  0  0
 18 26  1  0  0  0
 18 19  2  0  0  0
 19 20  1  0  0  0
 20 21  2  0  0  0
 21 25  1  0  0  0
 21 22  1  0  0  0
 22 23  1  0  0  0
 23 24  1  0  0  0
 24 25  1  0  0  0
 25 26  2  0  0  0
  7  8  1  0  0  0
M  END
> <minimizedAffinity>
-8.51672

$$$$
ZINC000078901013


 23 26  0  0  0  0  0  0  0  0999 V2000
   -7.7793   19.0517   -9.0579 C   0  0  0  0  0  0  0  0  0  0  0  0
   -9.0687   19.5920   -8.4333 C   0  0  0  0  0  0  0  0  0  0  0  0
   -9.0912   19.2398   -6.9433 C   0  0  0  0  0  0  0  0  0  0  0  0
   -8.9783   17.7222   -6.7810 C   0  0  0  0  0  0  0  0  0  0  0  0
   -7.7285   17.2547   -7.3940 N   0  0  0  0  0  0  0  0  0  0  0  0
   -7.7034   17.5397   -8.8343 C   0  0  0  0  0  0  0  0  0  0  0  0
   -6.8542   18.6979  -14.0532 C   0  0  0  0  0  0  0  0  0  0  0  0
   -7.3624   19.1735  -12.7165 C   0  0  0  0  0  0  0  0  0  0  0  0
   -7.1268   18.5884  -11.5194 C   0  0  0  0  0  0  0  0  0  0  0  0
   -7.7764   19.3425  -10.5366 C   0  0  0  0  0  0  0  0  0  0  0  0
   -8.3802   20.3443  -11.1227 N   0  0  0  0  0  0  0  0  0  0  0  0
   -8.1293   20.2623  -12.4985 N   0  0  0  0  0  0  0  0  0  0  0  0
   -7.3618   19.1695  -12.7195 H   0  0  0  0  0  0  0  0  0  0  0  0
   -7.5191   15.8237   -7.1368 C   0  0  0  0  0  0  0  0  0  0  0  0
   -8.3110   15.4074   -5.8957 C   0  0  0  0  0  0  0  0  0  0  0  0
   -7.9911   15.0255   -8.3248 C   0  0  0  0  0  0  0  0  0  0  0  0
   -7.2581   14.6180   -9.3329 N   0  0  0  0  0  0  0  0  0  0  0  0
   -8.0975   13.9500  -10.1441 C   0  0  0  0  0  0  0  0  0  0  0  0
   -9.2762   13.9846   -9.5981 N   0  0  0  0  0  0  0  0  0  0  0  0
   -9.2354   14.5928   -8.5495 O   0  0  0  0  0  0  0  0  0  0  0  0
   -7.7371   13.2832  -11.4467 C   0  0  0  0  0  0  0  0  0  0  0  0
   -8.6484   13.5413  -12.6483 C   0  0  0  0  0  0  0  0  0  0  0  0
   -7.2591   14.1797  -12.5906 C   0  0  0  0  0  0  0  0  0  0  0  0
  7  8  1  0  0  0
  8 12  1  0  0  0
  8  9  2  0  0  0
  9 10  1  0  0  0
 10  1  1  0  0  0
 10 11  2  0  0  0
  1  6  1  0  0  0
  1  2  1  0  0  0
  2  3  1  0  0  0
  3  4  1  0  0  0
  4  5  1  0  0  0
  5 14  1  0  0  0
  5  6  1  0  0  0
 14 15  1  0  0  0
 14 16  1  0  0  0
 16 20  1  0  0  0
 16 17  2  0  0  0
 17 18  1  0  0  0
 18 21  1  0  0  0
 18 19  2  0  0  0
 21 23  1  0  0  0
 21 22  1  0  0  0
 22 23  1  0  0  0
 19 20  1  0  0  0
 11 12  1  0  0  0
 12 13  1  0  0  0
M  END
> <minimizedAffinity>
-7.67537

$$$$
ZINC000220468668


 27 29  0  0  0  0  0  0  0  0999 V2000
   -9.1699   16.7567   -7.0163 C   0  0  0  0  0  0  0  0  0  0  0  0
  -10.1590   16.0502   -6.9829 O   0  0  0  0  0  0  0  0  0  0  0  0
   -7.9893   16.2448   -7.4168 N   0  0  0  0  0  0  0  0  0  0  0  0
   -6.7671   17.0591   -7.3740 C   0  0  0  0  0  0  0  0  0  0  0  0
   -6.1130   17.0398   -8.7591 C   0  0  0  0  0  0  0  0  0  0  0  0
   -5.8870   15.5894   -9.1920 C   0  0  0  0  0  0  0  0  0  0  0  0
   -7.2331   14.8669   -9.2833 C   0  0  0  0  0  0  0  0  0  0  0  0
   -7.8989   14.8598   -7.8989 C   0  0  0  0  0  0  0  0  0  0  0  0
   -9.4349   20.8370   -5.8706 C   0  0  0  0  0  0  0  0  0  0  0  0
   -9.3717   20.4969   -7.2191 C   0  0  0  0  0  0  0  0  0  0  0  0
   -9.2860   19.1755   -7.5936 C   0  0  0  0  0  0  0  0  0  0  0  0
   -9.2623   18.1742   -6.6183 C   0  0  0  0  0  0  0  0  0  0  0  0
   -9.3259   18.5190   -5.2650 C   0  0  0  0  0  0  0  0  0  0  0  0
   -9.4058   19.8425   -4.8967 C   0  0  0  0  0  0  0  0  0  0  0  0
   -9.5215   22.1731   -5.4954 N   0  0  0  0  0  0  0  0  0  0  0  0
   -9.0582   22.0119   -2.8447 H   0  0  0  0  0  0  0  0  0  0  0  0
  -10.9539   22.7836   -4.9315 S   0  0  0  0  0  0  0  0  0  0  0  0
  -11.9296   21.8468   -5.3668 O   0  0  0  0  0  0  0  0  0  0  0  0
  -10.9693   24.1265   -5.3956 O   0  0  0  0  0  0  0  0  0  0  0  0
   -9.3900   23.2193   -2.7301 C   0  0  0  0  0  0  0  0  0  0  0  0
  -10.7866   22.7360   -3.1258 C   0  0  0  0  0  0  0  0  0  0  0  0
   -7.0091   13.4266   -9.7485 C   0  0  0  0  0  0  0  0  0  0  0  0
   -7.7355   13.1992  -11.0002 N   0  0  0  0  0  0  0  0  0  0  0  0
   -8.5240   14.1045  -11.6577 C   0  0  0  0  0  0  0  0  0  0  0  0
   -8.9946   13.4853  -12.7571 C   0  0  0  0  0  0  0  0  0  0  0  0
   -8.5067   12.2360  -12.7705 N   0  0  0  0  0  0  0  0  0  0  0  0
   -7.7477   12.0590  -11.7238 C   0  0  0  0  0  0  0  0  0  0  0  0
 20 21  1  0  0  0
 21 17  1  0  0  0
 17 18  2  0  0  0
 17 19  2  0  0  0
 17 15  1  0  0  0
 15  9  1  0  0  0
  9 14  2  0  0  0
  9 10  1  0  0  0
 10 11  2  0  0  0
 11 12  1  0  0  0
 12  1  1  0  0  0
 12 13  2  0  0  0
  1  2  2  0  0  0
  1  3  1  0  0  0
  3  8  1  0  0  0
  3  4  1  0  0  0
  4  5  1  0  0  0
  5  6  1  0  0  0
  6  7  1  0  0  0
  7 22  1  0  0  0
  7  8  1  0  0  0
 22 23  1  0  0  0
 23 27  1  0  0  0
 23 24  1  0  0  0
 24 25  2  0  0  0
 25 26  1  0  0  0
 26 27  2  0  0  0
 13 14  1  0  0  0
 15 16  1  0  0  0
M  END
> <minimizedAffinity>
-7.50516

$$$$
ZINC000004649832


 29 31  0  0  0  0  0  0  0  0999 V2000
   -6.7688   14.0063  -11.2062 C   0  0  0  0  0  0  0  0  0  0  0  0
   -8.0369   13.5826  -11.0752 C   0  0  0  0  0  0  0  0  0  0  0  0
   -8.5609   12.5111  -11.9962 C   0  0  0  0  0  0  0  0  0  0  0  0
   -8.8591   14.1096  -10.1173 N   0  0  0  0  0  0  0  0  0  0  0  0
   -8.3305   14.7979   -9.0520 C   0  0  0  0  0  0  0  0  0  0  0  0
   -7.0557   15.2765   -9.1022 C   0  0  0  0  0  0  0  0  0  0  0  0
   -6.5429   15.9706   -7.9911 C   0  0  0  0  0  0  0  0  0  0  0  0
   -5.4041   16.4050   -8.0109 O   0  0  0  0  0  0  0  0  0  0  0  0
   -7.3195   16.1526   -6.9049 N   0  0  0  0  0  0  0  0  0  0  0  0
   -8.5775   15.6763   -6.8760 C   0  0  0  0  0  0  0  0  0  0  0  0
   -9.5419   15.9258   -5.4836 S   0  0  0  0  0  0  0  0  0  0  0  0
   -9.0889   15.0072   -7.9255 N   0  0  0  0  0  0  0  0  0  0  0  0
   -6.1978   15.0729  -10.3170 C   0  0  0  0  0  0  0  0  0  0  0  0
   -4.7734   14.0444  -12.5409 H   0  0  0  0  0  0  0  0  0  0  0  0
   -4.7734   14.0444  -12.5409 H   0  0  0  0  0  0  0  0  0  0  0  0
   -4.7734   14.0444  -12.5409 H   0  0  0  0  0  0  0  0  0  0  0  0
   -6.1243   16.3624  -11.0933 C   0  0  0  0  0  0  0  0  0  0  0  0
   -5.0701   16.5895  -11.9579 C   0  0  0  0  0  0  0  0  0  0  0  0
   -5.0027   17.7726  -12.6701 C   0  0  0  0  0  0  0  0  0  0  0  0
   -5.9898   18.7280  -12.5179 C   0  0  0  0  0  0  0  0  0  0  0  0
   -7.0448   18.5005  -11.6538 C   0  0  0  0  0  0  0  0  0  0  0  0
   -7.1144   17.3160  -10.9450 C   0  0  0  0  0  0  0  0  0  0  0  0
   -8.1015   19.5240  -11.4904 N   0  0  0  0  0  0  0  0  0  0  0  0
   -8.8477   19.4807  -10.5285 O   0  0  0  0  0  0  0  0  0  0  0  0
   -8.2251   20.4095  -12.3175 O   0  0  0  0  0  0  0  0  0  0  0  0
   -5.9492   13.4291  -12.2033 C   0  0  0  0  0  0  0  0  0  0  0  0
   -6.1379   13.6957  -13.3755 O   0  0  0  0  0  0  0  0  0  0  0  0
   -5.3336   11.3993  -11.1471 C   0  0  0  0  0  0  0  0  0  0  0  0
   -4.9577   12.5825  -11.8550 O   0  0  0  0  0  0  0  0  0  0  0  0
 28 29  1  0  0  0
 29 26  1  0  0  0
 26 27  2  0  0  0
 26  1  1  0  0  0
  1 13  1  0  0  0
  1  2  2  0  0  0
  2  3  1  0  0  0
  2  4  1  0  0  0
  4  5  1  0  0  0
  5 12  1  0  0  0
  5  6  2  0  0  0
  6  7  1  0  0  0
  6 13  1  0  0  0
  7  8  2  0  0  0
  7  9  1  0  0  0
  9 10  1  0  0  0
 10 11  2  0  0  0
 10 12  1  0  0  0
 13 17  1  0  0  0
 17 22  1  0  0  0
 17 18  2  0  0  0
 18 19  1  0  0  0
 19 20  2  0  0  0
 20 21  1  0  0  0
 21 23  1  0  0  0
 21 22  2  0  0  0
 23 24  1  0  0  0
 23 25  2  0  0  0
  4 14  1  0  0  0
  9 15  1  0  0  0
 12 16  1  0  0  0
M  CHG 1  23   1
M  CHG 1  24  -1
M  END
> <minimizedAffinity>
-8.61455

$$$$
ZINC000012762888


 26 29  0  0  0  0  0  0  0  0999 V2000
   -7.0648   17.2628   -9.8077 C   0  0  0  0  0  0  0  0  0  0  0  0
   -7.8584   18.2624  -10.3535 C   0  0  0  0  0  0  0  0  0  0  0  0
   -8.5971   19.0888   -9.5276 C   0  0  0  0  0  0  0  0  0  0  0  0
   -8.5477   18.9221   -8.1535 C   0  0  0  0  0  0  0  0  0  0  0  0
   -9.1663   19.5963   -7.1380 O   0  0  0  0  0  0  0  0  0  0  0  0
   -9.0508   18.7447   -5.9891 C   0  0  0  0  0  0  0  0  0  0  0  0
   -8.8653   19.5796   -4.7264 C   0  0  0  0  0  0  0  0  0  0  0  0
   -8.7118   18.6520   -3.5182 C   0  0  0  0  0  0  0  0  0  0  0  0
   -9.9589   17.7749   -3.3892 C   0  0  0  0  0  0  0  0  0  0  0  0
  -10.1215   16.9279   -4.6530 C   0  0  0  0  0  0  0  0  0  0  0  0
  -10.2777   17.8478   -5.8665 C   0  0  0  0  0  0  0  0  0  0  0  0
   -7.8781   17.9583   -6.2431 O   0  0  0  0  0  0  0  0  0  0  0  0
   -7.7540   17.9177   -7.6028 C   0  0  0  0  0  0  0  0  0  0  0  0
   -7.0178   17.0879   -8.4311 C   0  0  0  0  0  0  0  0  0  0  0  0
   -6.5003   15.0922  -10.6060 C   0  0  0  0  0  0  0  0  0  0  0  0
   -7.2525   14.6082   -9.7868 O   0  0  0  0  0  0  0  0  0  0  0  0
   -6.3160   16.4268  -10.6460 N   0  0  0  0  0  0  0  0  0  0  0  0
   -2.9402   17.9307  -13.5149 H   0  0  0  0  0  0  0  0  0  0  0  0
   -5.7717   14.2015  -11.5789 C   0  0  0  0  0  0  0  0  0  0  0  0
   -7.5233   12.3920  -11.9001 C   0  0  0  0  0  0  0  0  0  0  0  0
   -7.5814   11.1070  -11.6189 N   0  0  0  0  0  0  0  0  0  0  0  0
   -6.4851   10.7412  -11.0554 N   0  0  0  0  0  0  0  0  0  0  0  0
   -5.6744   11.7636  -10.9470 C   0  0  0  0  0  0  0  0  0  0  0  0
   -6.2966   12.8374  -11.4794 N   0  0  0  0  0  0  0  0  0  0  0  0
   -9.3538   13.7942  -13.0304 N   0  0  0  0  0  0  0  0  0  0  0  0
   -8.5440   13.1740  -12.5304 C   0  0  0  0  0  0  0  0  0  0  0  0
 25 26  3  0  0  0
 26 20  1  0  0  0
 20 24  1  0  0  0
 20 21  2  0  0  0
 21 22  1  0  0  0
 22 23  2  0  0  0
 23 24  1  0  0  0
 24 19  1  0  0  0
 19 15  1  0  0  0
 15 16  2  0  0  0
 15 17  1  0  0  0
 17  1  1  0  0  0
  1 14  1  0  0  0
  1  2  2  0  0  0
  2  3  1  0  0  0
  3  4  2  0  0  0
  4 13  1  0  0  0
  4  5  1  0  0  0
  5  6  1  0  0  0
  6 11  1  0  0  0
  6  7  1  0  0  0
  6 12  1  0  0  0
  7  8  1  0  0  0
  8  9  1  0  0  0
  9 10  1  0  0  0
 10 11  1  0  0  0
 12 13  1  0  0  0
 13 14  2  0  0  0
 17 18  1  0  0  0
M  END
> <minimizedAffinity>
-8.03314

$$$$
ZINC000257211163


 27 29  0  0  0  0  0  0  0  0999 V2000
   -8.5156   18.1064   -6.7621 C   0  0  0  0  0  0  0  0  0  0  0  0
   -7.8938   17.1966   -6.2554 O   0  0  0  0  0  0  0  0  0  0  0  0
   -8.0913   18.6500   -7.9200 N   0  0  0  0  0  0  0  0  0  0  0  0
   -8.7216   19.7628   -8.6670 C   0  0  0  0  0  0  0  0  0  0  0  0
   -8.5660   19.3307  -10.1468 C   0  0  0  0  0  0  0  0  0  0  0  0
   -8.5962   20.4677  -11.0118 O   0  0  0  0  0  0  0  0  0  0  0  0
   -7.1724   18.6612  -10.1643 C   0  0  0  0  0  0  0  0  0  0  0  0
   -6.9006   18.2624   -8.6995 C   0  0  0  0  0  0  0  0  0  0  0  0
   -9.6721   17.7586   -4.7071 H   0  0  0  0  0  0  0  0  0  0  0  0
   -7.1878   17.4732  -11.0283 N   0  0  0  0  0  0  0  0  0  0  0  0
   -7.5188   16.2660  -10.2581 C   0  0  0  0  0  0  0  0  0  0  0  0
   -7.5830   15.0637  -11.2025 C   0  0  0  0  0  0  0  0  0  0  0  0
   -6.2866   14.8976  -11.8728 N   0  0  0  0  0  0  0  0  0  0  0  0
   -6.3432   13.7327  -12.7660 C   0  0  0  0  0  0  0  0  0  0  0  0
   -5.9814   16.1012  -12.6576 C   0  0  0  0  0  0  0  0  0  0  0  0
   -5.9038   17.3121  -11.7252 C   0  0  0  0  0  0  0  0  0  0  0  0
  -12.3328   21.8548  -10.2923 H   0  0  0  0  0  0  0  0  0  0  0  0
   -9.7627   18.6291   -6.0967 C   0  0  0  0  0  0  0  0  0  0  0  0
   -8.8866   19.4415   -3.9908 C   0  0  0  0  0  0  0  0  0  0  0  0
   -9.4315   19.8191   -5.3017 N   0  0  0  0  0  0  0  0  0  0  0  0
  -10.6013   20.6952   -5.1530 C   0  0  0  0  0  0  0  0  0  0  0  0
  -10.1735   22.1331   -5.2968 C   0  0  0  0  0  0  0  0  0  0  0  0
   -9.1959   22.4862   -6.2142 C   0  0  0  0  0  0  0  0  0  0  0  0
   -8.8343   23.8213   -6.3123 C   0  0  0  0  0  0  0  0  0  0  0  0
   -9.4558   24.7488   -5.4983 C   0  0  0  0  0  0  0  0  0  0  0  0
  -10.3823   24.3767   -4.6365 N   0  0  0  0  0  0  0  0  0  0  0  0
  -10.7548   23.1173   -4.5197 C   0  0  0  0  0  0  0  0  0  0  0  0
 19 20  1  0  0  0
 20 18  1  0  0  0
 20 21  1  0  0  0
 18  1  1  0  0  0
  1  2  2  0  0  0
  1  3  1  0  0  0
  3  8  1  0  0  0
  3  4  1  0  0  0
  4  5  1  0  0  0
  5  6  1  0  0  0
  5  7  1  0  0  0
  7 10  1  0  0  0
  7  8  1  0  0  0
 10 16  1  0  0  0
 10 11  1  0  0  0
 11 12  1  0  0  0
 12 13  1  0  0  0
 13 14  1  0  0  0
 13 15  1  0  0  0
 15 16  1  0  0  0
 21 22  1  0  0  0
 22 27  1  0  0  0
 22 23  2  0  0  0
 23 24  1  0  0  0
 24 25  2  0  0  0
 25 26  1  0  0  0
 26 27  2  0  0  0
  6  9  1  0  0  0
 13 17  1  0  0  0
M  CHG 1  13   1
M  END
> <minimizedAffinity>
-6.95181

$$$$
ZINC000020463927


 36 39  0  0  0  0  0  0  0  0999 V2000
  -10.4810   17.5552   -5.4100 C   0  0  0  0  0  0  0  0  0  0  0  0
   -9.6863   18.7423   -4.8415 C   0  0  0  0  0  0  0  0  0  0  0  0
  -10.6887   19.6845   -4.1347 C   0  0  0  0  0  0  0  0  0  0  0  0
  -10.7415   19.2171   -2.7748 O   0  0  0  0  0  0  0  0  0  0  0  0
   -9.8771   18.0689   -2.6921 C   0  0  0  0  0  0  0  0  0  0  0  0
   -8.8802   18.2336   -3.7498 O   0  0  0  0  0  0  0  0  0  0  0  0
  -10.7096   16.8171   -3.0093 C   0  0  0  0  0  0  0  0  0  0  0  0
  -11.4528   17.0547   -4.3354 C   0  0  0  0  0  0  0  0  0  0  0  0
  -12.4484   18.0631   -4.1503 O   0  0  0  0  0  0  0  0  0  0  0  0
   -4.2637   14.0219  -10.0307 H   0  0  0  0  0  0  0  0  0  0  0  0
   -9.8181   15.6605   -3.1693 N   0  0  0  0  0  0  0  0  0  0  0  0
  -10.6116   14.4259   -3.1453 C   0  0  0  0  0  0  0  0  0  0  0  0
   -9.6983   13.2232   -3.3926 C   0  0  0  0  0  0  0  0  0  0  0  0
   -8.6300   13.1668   -2.2968 C   0  0  0  0  0  0  0  0  0  0  0  0
   -7.8573   14.4889   -2.2821 C   0  0  0  0  0  0  0  0  0  0  0  0
   -8.8399   15.6436   -2.0751 C   0  0  0  0  0  0  0  0  0  0  0  0
   -5.9280   12.8389  -10.7536 H   0  0  0  0  0  0  0  0  0  0  0  0
   -7.6800   12.0310   -2.5773 C   0  0  0  0  0  0  0  0  0  0  0  0
   -7.5486   11.0270   -1.6878 N   0  0  0  0  0  0  0  0  0  0  0  0
   -7.0337   12.0204   -3.6035 O   0  0  0  0  0  0  0  0  0  0  0  0
   -0.6728   15.8598   -5.1876 H   0  0  0  0  0  0  0  0  0  0  0  0
   -0.6728   15.8598   -5.1876 H   0  0  0  0  0  0  0  0  0  0  0  0
   -8.2725   15.3828   -7.3906 N   0  0  0  0  0  0  0  0  0  0  0  0
   -9.1204   16.3737   -7.0501 C   0  0  0  0  0  0  0  0  0  0  0  0
   -9.4892   17.1733   -7.8886 O   0  0  0  0  0  0  0  0  0  0  0  0
   -9.5594   16.4783   -5.7801 N   0  0  0  0  0  0  0  0  0  0  0  0
   -5.6180   13.1354  -10.8236 H   0  0  0  0  0  0  0  0  0  0  0  0
   -5.6180   13.1354  -10.8236 H   0  0  0  0  0  0  0  0  0  0  0  0
   -7.8730   14.6702  -10.9859 C   0  0  0  0  0  0  0  0  0  0  0  0
   -6.6327   15.2636  -11.2300 C   0  0  0  0  0  0  0  0  0  0  0  0
   -5.9527   15.8876  -10.2039 C   0  0  0  0  0  0  0  0  0  0  0  0
   -6.4947   15.9275   -8.9330 C   0  0  0  0  0  0  0  0  0  0  0  0
   -7.7284   15.3395   -8.6795 C   0  0  0  0  0  0  0  0  0  0  0  0
   -8.4227   14.7162   -9.7041 C   0  0  0  0  0  0  0  0  0  0  0  0
   -9.1425   13.5077  -12.8916 N   0  0  0  0  0  0  0  0  0  0  0  0
   -8.5809   14.0220  -12.0486 C   0  0  0  0  0  0  0  0  0  0  0  0
 35 36  3  0  0  0
 36 29  1  0  0  0
 29 34  2  0  0  0
 29 30  1  0  0  0
 30 31  2  0  0  0
 31 32  1  0  0  0
 32 33  2  0  0  0
 33 23  1  0  0  0
 33 34  1  0  0  0
 23 24  1  0  0  0
 24 25  2  0  0  0
 24 26  1  0  0  0
 26  1  1  0  0  0
  1  8  1  0  0  0
  1  2  1  0  0  0
  2  6  1  0  0  0
  2  3  1  0  0  0
  3  4  1  0  0  0
  4  5  1  0  0  0
  5  6  1  0  0  0
  5  7  1  0  0  0
  7 11  1  0  0  0
  7  8  1  0  0  0
 11 16  1  0  0  0
 11 12  1  0  0  0
 12 13  1  0  0  0
 13 14  1  0  0  0
 14 18  1  0  0  0
 14 15  1  0  0  0
 18 19  1  0  0  0
 18 20  2  0  0  0
 15 16  1  0  0  0
  8  9  1  0  0  0
 23 27  1  0  0  0
 26 28  1  0  0  0
 11 17  1  0  0  0
 19 21  1  0  0  0
 19 22  1  0  0  0
  9 10  1  0  0  0
M  CHG 1  11   1
M  END
> <minimizedAffinity>
-6.87033

$$$$
ZINC000012603685


 30 31  0  0  0  0  0  0  0  0999 V2000
   -8.3548   17.5098   -7.8650 C   0  0  0  0  0  0  0  0  0  0  0  0
   -7.1539   16.7250   -7.9551 O   0  0  0  0  0  0  0  0  0  0  0  0
   -7.4422   15.4430   -7.3570 C   0  0  0  0  0  0  0  0  0  0  0  0
   -8.8782   15.1293   -7.8488 C   0  0  0  0  0  0  0  0  0  0  0  0
   -9.5402   14.2348   -6.9523 O   0  0  0  0  0  0  0  0  0  0  0  0
   -9.5438   16.5303   -7.8230 C   0  0  0  0  0  0  0  0  0  0  0  0
  -10.3004   16.7027   -6.6231 O   0  0  0  0  0  0  0  0  0  0  0  0
   -6.3184   22.2366  -11.1890 H   0  0  0  0  0  0  0  0  0  0  0  0
   -6.3184   22.2366  -11.1890 H   0  0  0  0  0  0  0  0  0  0  0  0
   -8.4741   18.4207   -9.0884 C   0  0  0  0  0  0  0  0  0  0  0  0
   -9.1561   20.0708   -7.3765 N   0  0  0  0  0  0  0  0  0  0  0  0
   -8.7479   19.8327   -8.6386 C   0  0  0  0  0  0  0  0  0  0  0  0
   -8.6009   20.7549   -9.4125 O   0  0  0  0  0  0  0  0  0  0  0  0
   -9.8522   21.4373   -5.5357 H   0  0  0  0  0  0  0  0  0  0  0  0
   -9.4223   21.4435   -6.9393 C   0  0  0  0  0  0  0  0  0  0  0  0
   -9.8715   21.4672   -4.3318 C   0  0  0  0  0  0  0  0  0  0  0  0
   -9.6722   21.4567   -5.4887 C   0  0  0  0  0  0  0  0  0  0  0  0
   -6.4559   14.3834   -7.8524 C   0  0  0  0  0  0  0  0  0  0  0  0
   -7.1877   13.3228   -8.5495 N   0  0  0  0  0  0  0  0  0  0  0  0
   -6.5742    9.0998   -1.1519 H   0  0  0  0  0  0  0  0  0  0  0  0
   -6.8184   12.9577  -10.1219 S   0  0  0  0  0  0  0  0  0  0  0  0
   -5.5986   12.2294  -10.0888 O   0  0  0  0  0  0  0  0  0  0  0  0
   -8.0103   12.4515  -10.7069 O   0  0  0  0  0  0  0  0  0  0  0  0
   -6.4683   14.4775  -10.9418 C   0  0  0  0  0  0  0  0  0  0  0  0
   -7.5003   15.3288  -11.2897 C   0  0  0  0  0  0  0  0  0  0  0  0
   -7.2256   16.5212  -11.9331 C   0  0  0  0  0  0  0  0  0  0  0  0
   -5.9190   16.8623  -12.2280 C   0  0  0  0  0  0  0  0  0  0  0  0
   -5.6195   18.1620  -12.9298 C   0  0  0  0  0  0  0  0  0  0  0  0
   -4.8868   16.0116  -11.8790 C   0  0  0  0  0  0  0  0  0  0  0  0
   -5.1611   14.8210  -11.2323 C   0  0  0  0  0  0  0  0  0  0  0  0
 16 17  3  0  0  0
 17 15  1  0  0  0
 15 11  1  0  0  0
 11 12  1  0  0  0
 12 13  2  0  0  0
 12 10  1  0  0  0
 10  1  1  0  0  0
  1  6  1  0  0  0
  1  2  1  0  0  0
  2  3  1  0  0  0
  3 18  1  0  0  0
  3  4  1  0  0  0
 18 19  1  0  0  0
 19 21  1  0  0  0
 21 22  2  0  0  0
 21 23  2  0  0  0
 21 24  1  0  0  0
 24 30  1  0  0  0
 24 25  2  0  0  0
 25 26  1  0  0  0
 26 27  2  0  0  0
 27 28  1  0  0  0
 27 29  1  0  0  0
 29 30  2  0  0  0
  4  5  1  0  0  0
  4  6  1  0  0  0
  6  7  1  0  0  0
 11 14  1  0  0  0
 19 20  1  0  0  0
  5  8  1  0  0  0
  7  9  1  0  0  0
M  END
> <minimizedAffinity>
-7.58681

$$$$
ZINC000007309653


 24 25  0  0  0  0  0  0  0  0999 V2000
   -5.9402   14.0738  -12.1919 S   0  0  0  0  0  0  0  0  0  0  0  0
   -4.6620   13.5257  -11.9002 O   0  0  0  0  0  0  0  0  0  0  0  0
   -6.9085   13.4062  -12.9893 O   0  0  0  0  0  0  0  0  0  0  0  0
   -8.5757   15.1727   -6.8767 C   0  0  0  0  0  0  0  0  0  0  0  0
   -7.9174   14.8983   -8.2043 C   0  0  0  0  0  0  0  0  0  0  0  0
   -8.6876   14.7771   -9.3455 C   0  0  0  0  0  0  0  0  0  0  0  0
   -8.0837   14.5253  -10.5635 C   0  0  0  0  0  0  0  0  0  0  0  0
   -6.7098   14.3952  -10.6398 C   0  0  0  0  0  0  0  0  0  0  0  0
   -5.9393   14.5179   -9.4984 C   0  0  0  0  0  0  0  0  0  0  0  0
   -6.5427   14.7734   -8.2815 C   0  0  0  0  0  0  0  0  0  0  0  0
   -5.7179   14.9047   -7.0594 N   0  0  0  0  0  0  0  0  0  0  0  0
   -5.7035   14.0082   -6.2352 O   0  0  0  0  0  0  0  0  0  0  0  0
   -5.0536   15.9095   -6.8781 O   0  0  0  0  0  0  0  0  0  0  0  0
   -5.6670   15.5377  -12.9161 N   0  0  0  0  0  0  0  0  0  0  0  0
   -8.7323   11.9481  -15.0340 H   0  0  0  0  0  0  0  0  0  0  0  0
   -6.7699   16.4863  -13.0898 C   0  0  0  0  0  0  0  0  0  0  0  0
   -6.2792   17.9016  -12.7786 C   0  0  0  0  0  0  0  0  0  0  0  0
   -4.7741   17.8711  -12.5057 C   0  0  0  0  0  0  0  0  0  0  0  0
   -6.9994   18.4273  -11.5638 C   0  0  0  0  0  0  0  0  0  0  0  0
   -6.6760   17.9491  -10.3077 C   0  0  0  0  0  0  0  0  0  0  0  0
   -7.3366   18.4313   -9.1933 C   0  0  0  0  0  0  0  0  0  0  0  0
   -8.3205   19.3919   -9.3349 C   0  0  0  0  0  0  0  0  0  0  0  0
   -8.6434   19.8707  -10.5908 C   0  0  0  0  0  0  0  0  0  0  0  0
   -7.9798   19.3916  -11.7048 C   0  0  0  0  0  0  0  0  0  0  0  0
  4  5  1  0  0  0
  5 10  2  0  0  0
  5  6  1  0  0  0
  6  7  2  0  0  0
  7  8  1  0  0  0
  8  1  1  0  0  0
  8  9  2  0  0  0
  1  2  2  0  0  0
  1  3  2  0  0  0
  1 14  1  0  0  0
 14 16  1  0  0  0
 16 17  1  0  0  0
 17 18  1  0  0  0
 17 19  1  0  0  0
 19 24  1  0  0  0
 19 20  2  0  0  0
 20 21  1  0  0  0
 21 22  2  0  0  0
 22 23  1  0  0  0
 23 24  2  0  0  0
  9 10  1  0  0  0
 10 11  1  0  0  0
 11 12  1  0  0  0
 11 13  2  0  0  0
 14 15  1  0  0  0
M  CHG 1  11   1
M  CHG 1  12  -1
M  END
> <minimizedAffinity>
-8.04023

$$$$
ZINC000004744570


 23 24  0  0  0  0  0  0  0  0999 V2000
   -7.0822   13.0495  -11.9565 C   0  0  0  0  0  0  0  0  0  0  0  0
   -8.4202   13.7412  -10.9282 S   0  0  0  0  0  0  0  0  0  0  0  0
   -7.6173   15.3032  -10.6884 C   0  0  0  0  0  0  0  0  0  0  0  0
   -8.0781   16.3092  -10.0007 N   0  0  0  0  0  0  0  0  0  0  0  0
   -6.4225   15.2581  -11.3584 N   0  0  0  0  0  0  0  0  0  0  0  0
   -6.0706   14.1700  -12.0216 C   0  0  0  0  0  0  0  0  0  0  0  0
   -5.0256   14.0788  -12.6298 O   0  0  0  0  0  0  0  0  0  0  0  0
   -7.0295   17.3708   -9.2826 S   0  0  0  0  0  0  0  0  0  0  0  0
   -6.0265   16.5825   -8.6566 O   0  0  0  0  0  0  0  0  0  0  0  0
   -6.7412   18.3683  -10.2528 O   0  0  0  0  0  0  0  0  0  0  0  0
   -7.9097   18.1770   -7.9865 C   0  0  0  0  0  0  0  0  0  0  0  0
   -8.5450   19.3809   -8.2272 C   0  0  0  0  0  0  0  0  0  0  0  0
   -9.2356   20.0133   -7.2102 C   0  0  0  0  0  0  0  0  0  0  0  0
   -9.2912   19.4417   -5.9529 C   0  0  0  0  0  0  0  0  0  0  0  0
   -8.6566   18.2374   -5.7124 C   0  0  0  0  0  0  0  0  0  0  0  0
   -7.9697   17.6028   -6.7304 C   0  0  0  0  0  0  0  0  0  0  0  0
   -6.2926   12.0786   -9.7940 C   0  0  0  0  0  0  0  0  0  0  0  0
   -6.4748   11.8135  -11.2898 C   0  0  0  0  0  0  0  0  0  0  0  0
   -5.5315   16.4210  -11.3395 C   0  0  0  0  0  0  0  0  0  0  0  0
   -5.2760   16.8910  -12.7730 C   0  0  0  0  0  0  0  0  0  0  0  0
   -6.5853   17.3915  -13.3864 C   0  0  0  0  0  0  0  0  0  0  0  0
   -6.5545   18.8173  -13.4767 O   0  0  0  0  0  0  0  0  0  0  0  0
   -7.3052   19.3467  -14.5713 C   0  0  0  0  0  0  0  0  0  0  0  0
 17 18  1  0  0  0
 18  1  1  0  0  0
  1  6  1  0  0  0
  1  2  1  0  0  0
  2  3  1  0  0  0
  3  4  2  0  0  0
  3  5  1  0  0  0
  4  8  1  0  0  0
  8  9  2  0  0  0
  8 10  2  0  0  0
  8 11  1  0  0  0
 11 16  1  0  0  0
 11 12  2  0  0  0
 12 13  1  0  0  0
 13 14  2  0  0  0
 14 15  1  0  0  0
 15 16  2  0  0  0
  5 19  1  0  0  0
  5  6  1  0  0  0
 19 20  1  0  0  0
 20 21  1  0  0  0
 21 22  1  0  0  0
 22 23  1  0  0  0
  6  7  2  0  0  0
M  END
> <minimizedAffinity>
-6.70259

$$$$
ZINC000019700675


 34 37  0  0  0  0  0  0  0  0999 V2000
   -6.9093   17.3045  -12.2917 N   0  0  0  0  0  0  0  0  0  0  0  0
   -6.6726   18.2563  -11.1995 C   0  0  0  0  0  0  0  0  0  0  0  0
   -7.5985   17.9287  -10.0246 C   0  0  0  0  0  0  0  0  0  0  0  0
   -7.3288   16.5033   -9.5527 C   0  0  0  0  0  0  0  0  0  0  0  0
   -7.4801   15.5217  -10.7107 C   0  0  0  0  0  0  0  0  0  0  0  0
   -6.5574   15.9476  -11.8563 C   0  0  0  0  0  0  0  0  0  0  0  0
   -5.9888   16.4008   -8.9620 N   0  0  0  0  0  0  0  0  0  0  0  0
   -6.1662   16.0268   -7.6802 C   0  0  0  0  0  0  0  0  0  0  0  0
   -5.2551   15.8480   -6.8959 O   0  0  0  0  0  0  0  0  0  0  0  0
   -7.4588   15.8740   -7.3671 N   0  0  0  0  0  0  0  0  0  0  0  0
   -8.2597   16.1351   -8.4214 C   0  0  0  0  0  0  0  0  0  0  0  0
   -9.4705   16.0851   -8.4537 O   0  0  0  0  0  0  0  0  0  0  0  0
   -7.6934   16.2606  -14.9474 H   0  0  0  0  0  0  0  0  0  0  0  0
   -7.6934   16.2606  -14.9474 H   0  0  0  0  0  0  0  0  0  0  0  0
   -6.0838   17.6750  -13.4489 C   0  0  0  0  0  0  0  0  0  0  0  0
   -7.3435   19.5501  -14.5163 C   0  0  0  0  0  0  0  0  0  0  0  0
   -6.9903   18.0649  -14.6182 C   0  0  0  0  0  0  0  0  0  0  0  0
   -7.9439   15.4735   -6.0441 C   0  0  0  0  0  0  0  0  0  0  0  0
   -9.1002   16.3847   -5.6275 C   0  0  0  0  0  0  0  0  0  0  0  0
   -9.6780   15.8990   -4.2963 C   0  0  0  0  0  0  0  0  0  0  0  0
  -10.8574   16.7926   -3.8996 C   0  0  0  0  0  0  0  0  0  0  0  0
  -10.4078   18.1914   -3.8878 N   0  0  0  0  0  0  0  0  0  0  0  0
  -10.5900   18.9620   -2.7972 C   0  0  0  0  0  0  0  0  0  0  0  0
  -11.1943   18.5243   -1.8378 O   0  0  0  0  0  0  0  0  0  0  0  0
   -9.7555   18.7339   -5.0874 C   0  0  0  0  0  0  0  0  0  0  0  0
   -8.5884   17.8184   -5.4707 C   0  0  0  0  0  0  0  0  0  0  0  0
  -10.0547   20.3397   -2.7679 C   0  0  0  0  0  0  0  0  0  0  0  0
  -10.8314   21.4226   -3.1946 C   0  0  0  0  0  0  0  0  0  0  0  0
  -10.3132   22.6376   -3.1509 N   0  0  0  0  0  0  0  0  0  0  0  0
   -9.0851   22.8360   -2.7139 C   0  0  0  0  0  0  0  0  0  0  0  0
   -8.5396   24.2405   -2.6836 C   0  0  0  0  0  0  0  0  0  0  0  0
   -8.3190   21.8446   -2.3023 N   0  0  0  0  0  0  0  0  0  0  0  0
   -8.7586   20.5985   -2.3071 C   0  0  0  0  0  0  0  0  0  0  0  0
   -7.8750   19.4730   -1.8345 C   0  0  0  0  0  0  0  0  0  0  0  0
 16 17  1  0  0  0
 17 15  1  0  0  0
 15  1  1  0  0  0
  1  6  1  0  0  0
  1  2  1  0  0  0
  2  3  1  0  0  0
  4  3  1  0  0  0
  4 11  1  0  0  0
  4  5  1  0  0  0
  4  7  1  0  0  0
  5  6  1  0  0  0
  7  8  1  0  0  0
  8  9  2  0  0  0
  8 10  1  0  0  0
 10 18  1  0  0  0
 10 11  1  0  0  0
 18 19  1  0  0  0
 19 26  1  0  0  0
 19 20  1  0  0  0
 20 21  1  0  0  0
 21 22  1  0  0  0
 22 23  1  0  0  0
 22 25  1  0  0  0
 23 24  2  0  0  0
 23 27  1  0  0  0
 27 33  1  0  0  0
 27 28  2  0  0  0
 28 29  1  0  0  0
 29 30  2  0  0  0
 30 31  1  0  0  0
 30 32  1  0  0  0
 32 33  2  0  0  0
 33 34  1  0  0  0
 25 26  1  0  0  0
 11 12  2  0  0  0
  1 13  1  0  0  0
  7 14  1  0  0  0
M  CHG 1   1   1
M  END
> <minimizedAffinity>
-7.41515

$$$$
ZINC000006296666


 33 35  0  0  0  0  0  0  0  0999 V2000
  -10.4071   19.9144   -4.9637 C   0  0  0  0  0  0  0  0  0  0  0  0
  -10.9772   19.0282   -4.0736 C   0  0  0  0  0  0  0  0  0  0  0  0
  -10.6260   17.7363   -4.0283 N   0  0  0  0  0  0  0  0  0  0  0  0
   -9.6731   17.1920   -4.8619 C   0  0  0  0  0  0  0  0  0  0  0  0
   -9.3447   15.8418   -4.7744 C   0  0  0  0  0  0  0  0  0  0  0  0
   -8.3907   15.3097   -5.6140 C   0  0  0  0  0  0  0  0  0  0  0  0
   -7.7481   16.1053   -6.5515 C   0  0  0  0  0  0  0  0  0  0  0  0
   -8.0572   17.4437   -6.6557 C   0  0  0  0  0  0  0  0  0  0  0  0
   -9.0209   17.9958   -5.8125 C   0  0  0  0  0  0  0  0  0  0  0  0
   -9.3826   19.4231   -5.8987 C   0  0  0  0  0  0  0  0  0  0  0  0
   -8.8528   20.1647   -6.7076 O   0  0  0  0  0  0  0  0  0  0  0  0
  -11.0351   24.0424   -7.8450 H   0  0  0  0  0  0  0  0  0  0  0  0
   -9.9519   22.2882   -4.6135 N   0  0  0  0  0  0  0  0  0  0  0  0
  -10.8210   21.3263   -4.9822 C   0  0  0  0  0  0  0  0  0  0  0  0
  -11.9475   21.6253   -5.3303 O   0  0  0  0  0  0  0  0  0  0  0  0
   -8.8300   24.7216   -5.3376 H   0  0  0  0  0  0  0  0  0  0  0  0
  -10.3273   23.6993   -4.7323 C   0  0  0  0  0  0  0  0  0  0  0  0
   -8.4020   23.9983   -6.2036 C   0  0  0  0  0  0  0  0  0  0  0  0
   -9.6484   24.3001   -5.9361 C   0  0  0  0  0  0  0  0  0  0  0  0
   -6.5318   15.4005   -7.6139 S   0  0  0  0  0  0  0  0  0  0  0  0
   -5.4956   16.3656   -7.7331 O   0  0  0  0  0  0  0  0  0  0  0  0
   -6.3109   14.0765   -7.1482 O   0  0  0  0  0  0  0  0  0  0  0  0
   -7.2151   15.2601   -9.1159 N   0  0  0  0  0  0  0  0  0  0  0  0
   -8.2143   14.2198   -9.3717 C   0  0  0  0  0  0  0  0  0  0  0  0
   -6.8381   16.1354  -10.1406 C   0  0  0  0  0  0  0  0  0  0  0  0
   -5.8491   15.7646  -11.0420 C   0  0  0  0  0  0  0  0  0  0  0  0
   -5.4780   16.6288  -12.0534 C   0  0  0  0  0  0  0  0  0  0  0  0
   -6.0926   17.8669  -12.1686 C   0  0  0  0  0  0  0  0  0  0  0  0
   -7.0810   18.2378  -11.2690 C   0  0  0  0  0  0  0  0  0  0  0  0
   -7.4570   17.3727  -10.2602 C   0  0  0  0  0  0  0  0  0  0  0  0
   -5.7262   18.7175  -13.1646 O   0  0  0  0  0  0  0  0  0  0  0  0
   -6.7757   19.2918  -13.9460 C   0  0  0  0  0  0  0  0  0  0  0  0
   -7.2682   18.2675  -14.9702 C   0  0  0  0  0  0  0  0  0  0  0  0
 18 19  2  0  0  0
 19 17  1  0  0  0
 17 13  1  0  0  0
 13 14  1  0  0  0
 14 15  2  0  0  0
 14  1  1  0  0  0
  1 10  1  0  0  0
  1  2  2  0  0  0
  2  3  1  0  0  0
  3  4  1  0  0  0
  4  9  2  0  0  0
  4  5  1  0  0  0
  5  6  2  0  0  0
  6  7  1  0  0  0
  7 20  1  0  0  0
  7  8  2  0  0  0
 20 21  2  0  0  0
 20 22  2  0  0  0
 20 23  1  0  0  0
 23 24  1  0  0  0
 23 25  1  0  0  0
 25 30  1  0  0  0
 25 26  2  0  0  0
 26 27  1  0  0  0
 27 28  2  0  0  0
 28 31  1  0  0  0
 28 29  1  0  0  0
 31 32  1  0  0  0
 32 33  1  0  0  0
 29 30  2  0  0  0
  8  9  1  0  0  0
  9 10  1  0  0  0
 10 11  2  0  0  0
 13 16  1  0  0  0
  3 12  1  0  0  0
M  END
> <minimizedAffinity>
-7.83050

$$$$
ZINC000008653112


 39 40  0  0  0  0  0  0  0  0999 V2000
   -8.3757   19.5924   -9.2998 C   0  0  0  0  0  0  0  0  0  0  0  0
   -9.3076   19.2068   -8.1492 C   0  0  0  0  0  0  0  0  0  0  0  0
   -8.4846   18.6173   -7.0021 C   0  0  0  0  0  0  0  0  0  0  0  0
   -9.8238   16.9513   -5.6842 C   0  0  0  0  0  0  0  0  0  0  0  0
   -9.4003   18.2546   -5.8615 C   0  0  0  0  0  0  0  0  0  0  0  0
   -9.8438   19.2396   -4.9520 C   0  0  0  0  0  0  0  0  0  0  0  0
   -9.4932   20.4011   -5.0742 O   0  0  0  0  0  0  0  0  0  0  0  0
  -10.6637   18.8709   -3.9452 N   0  0  0  0  0  0  0  0  0  0  0  0
  -11.0481   17.5721   -3.8199 C   0  0  0  0  0  0  0  0  0  0  0  0
  -10.6424   16.6506   -4.6676 N   0  0  0  0  0  0  0  0  0  0  0  0
   -9.0033   14.0140   -6.5789 H   0  0  0  0  0  0  0  0  0  0  0  0
  -11.8805   17.2163   -2.7920 N   0  0  0  0  0  0  0  0  0  0  0  0
  -13.2022   17.5587   -2.8336 N   0  0  0  0  0  0  0  0  0  0  0  0
  -13.0126   19.5078   -7.9244 H   0  0  0  0  0  0  0  0  0  0  0  0
  -13.0126   19.5078   -7.9244 H   0  0  0  0  0  0  0  0  0  0  0  0
  -13.0126   19.5078   -7.9244 H   0  0  0  0  0  0  0  0  0  0  0  0
   -9.3775   15.8887   -6.6212 C   0  0  0  0  0  0  0  0  0  0  0  0
   -8.6012   15.0349   -6.2452 O   0  0  0  0  0  0  0  0  0  0  0  0
   -9.2666   14.8781   -8.7805 C   0  0  0  0  0  0  0  0  0  0  0  0
   -9.8341   15.8726   -7.8876 O   0  0  0  0  0  0  0  0  0  0  0  0
   -7.9400   18.3310  -10.0479 C   0  0  0  0  0  0  0  0  0  0  0  0
   -6.4134   18.2959  -10.1428 C   0  0  0  0  0  0  0  0  0  0  0  0
   -5.9659   16.9110  -10.5337 C   0  0  0  0  0  0  0  0  0  0  0  0
   -5.5972   16.6398  -11.8131 C   0  0  0  0  0  0  0  0  0  0  0  0
   -5.1895   15.3820  -12.1693 N   0  0  0  0  0  0  0  0  0  0  0  0
   -5.1377   14.3659  -11.2711 C   0  0  0  0  0  0  0  0  0  0  0  0
   -5.4958   14.5613   -9.9541 C   0  0  0  0  0  0  0  0  0  0  0  0
   -5.9155   15.8357   -9.5387 C   0  0  0  0  0  0  0  0  0  0  0  0
   -6.2396   16.0410   -8.3774 O   0  0  0  0  0  0  0  0  0  0  0  0
  -12.5940   20.8998   -5.6297 H   0  0  0  0  0  0  0  0  0  0  0  0
   -4.7210   13.1217  -11.6810 N   0  0  0  0  0  0  0  0  0  0  0  0
   -5.5767   12.0589  -11.6152 N   0  0  0  0  0  0  0  0  0  0  0  0
  -12.9755   22.6531  -11.3383 H   0  0  0  0  0  0  0  0  0  0  0  0
  -12.9755   22.6531  -11.3383 H   0  0  0  0  0  0  0  0  0  0  0  0
  -12.9755   22.6531  -11.3383 H   0  0  0  0  0  0  0  0  0  0  0  0
   -5.6359   17.7134  -12.8304 C   0  0  0  0  0  0  0  0  0  0  0  0
   -4.6784   18.4457  -12.9770 O   0  0  0  0  0  0  0  0  0  0  0  0
   -6.7333   17.8785  -13.5940 O   0  0  0  0  0  0  0  0  0  0  0  0
   -7.0630   19.2360  -13.9897 C   0  0  0  0  0  0  0  0  0  0  0  0
 19 20  1  0  0  0
 20 17  1  0  0  0
 17 18  2  0  0  0
 17  4  1  0  0  0
  4 10  1  0  0  0
  4  5  2  0  0  0
  5  3  1  0  0  0
  5  6  1  0  0  0
  3  2  1  0  0  0
  2  1  1  0  0  0
  1 21  1  0  0  0
 21 22  1  0  0  0
 22 23  1  0  0  0
 23 28  1  0  0  0
 23 24  2  0  0  0
 24 36  1  0  0  0
 24 25  1  0  0  0
 36 37  2  0  0  0
 36 38  1  0  0  0
 38 39  1  0  0  0
 25 26  1  0  0  0
 26 31  1  0  0  0
 26 27  2  0  0  0
 31 32  1  0  0  0
 27 28  1  0  0  0
 28 29  2  0  0  0
  6  7  2  0  0  0
  6  8  1  0  0  0
  8  9  1  0  0  0
  9 12  1  0  0  0
  9 10  2  0  0  0
 12 13  1  0  0  0
 25 30  1  0  0  0
 31 33  1  0  0  0
 32 34  1  0  0  0
 32 35  1  0  0  0
  8 11  1  0  0  0
 12 14  1  0  0  0
 13 15  1  0  0  0
 13 16  1  0  0  0
M  END
> <minimizedAffinity>
-7.43380

$$$$
ZINC000022914050


 23 24  0  0  0  0  0  0  0  0999 V2000
   -7.4701   17.7488  -10.2330 N   0  0  0  0  0  0  0  0  0  0  0  0
   -7.1352   17.3372   -8.9940 C   0  0  0  0  0  0  0  0  0  0  0  0
   -6.0102   16.9343   -8.7708 O   0  0  0  0  0  0  0  0  0  0  0  0
   -5.1409   17.5193  -16.2782 H   0  0  0  0  0  0  0  0  0  0  0  0
   -8.1356   17.3752   -7.9072 C   0  0  0  0  0  0  0  0  0  0  0  0
   -8.3217   18.5435   -7.1661 C   0  0  0  0  0  0  0  0  0  0  0  0
   -9.2571   18.5724   -6.1528 C   0  0  0  0  0  0  0  0  0  0  0  0
  -10.0108   17.4470   -5.8695 C   0  0  0  0  0  0  0  0  0  0  0  0
   -9.8329   16.2856   -6.5991 C   0  0  0  0  0  0  0  0  0  0  0  0
   -8.9036   16.2438   -7.6201 C   0  0  0  0  0  0  0  0  0  0  0  0
   -8.6812   14.7856   -8.5355 Cl  0  0  0  0  0  0  0  0  0  0  0  0
  -11.0125   17.4864   -4.7804 N   0  0  0  0  0  0  0  0  0  0  0  0
  -12.1170   17.0023   -4.9510 O   0  0  0  0  0  0  0  0  0  0  0  0
  -10.7321   18.0030   -3.7135 O   0  0  0  0  0  0  0  0  0  0  0  0
   -6.4782   17.7110  -11.3105 C   0  0  0  0  0  0  0  0  0  0  0  0
   -6.8814   16.6515  -12.3380 C   0  0  0  0  0  0  0  0  0  0  0  0
   -5.9970   11.1821  -11.2393 C   0  0  0  0  0  0  0  0  0  0  0  0
   -6.1688   12.5197  -11.8219 N   0  0  0  0  0  0  0  0  0  0  0  0
   -5.1814   13.4621  -11.2774 C   0  0  0  0  0  0  0  0  0  0  0  0
   -5.3419   14.8195  -11.9660 C   0  0  0  0  0  0  0  0  0  0  0  0
   -6.7096   15.3140  -11.7553 N   0  0  0  0  0  0  0  0  0  0  0  0
   -7.6971   14.3716  -12.2998 C   0  0  0  0  0  0  0  0  0  0  0  0
   -7.5365   13.0142  -11.6112 C   0  0  0  0  0  0  0  0  0  0  0  0
 17 18  1  0  0  0
 18 23  1  0  0  0
 18 19  1  0  0  0
 19 20  1  0  0  0
 20 21  1  0  0  0
 21 16  1  0  0  0
 21 22  1  0  0  0
 16 15  1  0  0  0
 15  1  1  0  0  0
  1  2  1  0  0  0
  2  3  2  0  0  0
  2  5  1  0  0  0
  5 10  1  0  0  0
  5  6  2  0  0  0
  6  7  1  0  0  0
  7  8  2  0  0  0
  8 12  1  0  0  0
  8  9  1  0  0  0
 12 13  1  0  0  0
 12 14  2  0  0  0
  9 10  2  0  0  0
 10 11  1  0  0  0
 22 23  1  0  0  0
  1  4  1  0  0  0
M  CHG 1  12   1
M  CHG 1  13  -1
M  END
> <minimizedAffinity>
-6.79165

$$$$
ZINC000104102262


 39 40  0  0  0  0  0  0  0  0999 V2000
   -9.2886   16.1518   -6.2905 C   0  0  0  0  0  0  0  0  0  0  0  0
   -9.4757   15.7901   -4.8157 C   0  0  0  0  0  0  0  0  0  0  0  0
   -9.6947   14.3832   -4.6944 O   0  0  0  0  0  0  0  0  0  0  0  0
  -10.0858   18.5852   -1.2532 H   0  0  0  0  0  0  0  0  0  0  0  0
  -10.6724   16.9305   -2.9714 C   0  0  0  0  0  0  0  0  0  0  0  0
   -9.5617   16.7626   -2.2001 O   0  0  0  0  0  0  0  0  0  0  0  0
  -10.6647   16.5332   -4.2631 C   0  0  0  0  0  0  0  0  0  0  0  0
  -11.7212   16.8015   -5.0579 O   0  0  0  0  0  0  0  0  0  0  0  0
  -10.7881   16.9784   -0.6036 H   0  0  0  0  0  0  0  0  0  0  0  0
  -10.7881   16.9784   -0.6036 H   0  0  0  0  0  0  0  0  0  0  0  0
  -12.7767   16.8233   -2.1139 O   0  0  0  0  0  0  0  0  0  0  0  0
  -11.8294   17.5187   -2.4220 C   0  0  0  0  0  0  0  0  0  0  0  0
   -8.4125   15.1614   -6.9303 N   0  0  0  0  0  0  0  0  0  0  0  0
  -11.1335   16.5300   -0.9628 H   0  0  0  0  0  0  0  0  0  0  0  0
   -8.9091   14.7804   -8.1444 N   0  0  0  0  0  0  0  0  0  0  0  0
  -10.2471   14.1245   -0.5705 H   0  0  0  0  0  0  0  0  0  0  0  0
   -8.0367   14.4172   -9.1730 C   0  0  0  0  0  0  0  0  0  0  0  0
   -8.5145   14.2597  -10.4679 C   0  0  0  0  0  0  0  0  0  0  0  0
   -7.6492   13.9006  -11.4826 C   0  0  0  0  0  0  0  0  0  0  0  0
   -6.3086   13.6976  -11.2106 C   0  0  0  0  0  0  0  0  0  0  0  0
   -5.8297   13.8535   -9.9228 C   0  0  0  0  0  0  0  0  0  0  0  0
   -6.6885   14.2181   -8.9045 C   0  0  0  0  0  0  0  0  0  0  0  0
   -5.3841   13.3132  -12.3007 N   0  0  0  0  0  0  0  0  0  0  0  0
   -4.4197   12.6089  -12.0613 O   0  0  0  0  0  0  0  0  0  0  0  0
   -5.5877   13.7015  -13.4371 O   0  0  0  0  0  0  0  0  0  0  0  0
   -8.6539   17.5397   -6.3987 C   0  0  0  0  0  0  0  0  0  0  0  0
   -9.3530   18.3189   -7.4292 N   0  0  0  0  0  0  0  0  0  0  0  0
   -4.7660   16.4227   -2.8972 H   0  0  0  0  0  0  0  0  0  0  0  0
   -8.5077   19.2107   -8.0261 N   0  0  0  0  0  0  0  0  0  0  0  0
  -10.3758   22.2771   -2.0943 H   0  0  0  0  0  0  0  0  0  0  0  0
   -8.0304   18.9649   -9.3155 C   0  0  0  0  0  0  0  0  0  0  0  0
   -8.4418   19.7645  -10.3743 C   0  0  0  0  0  0  0  0  0  0  0  0
   -7.9678   19.5188  -11.6480 C   0  0  0  0  0  0  0  0  0  0  0  0
   -7.0846   18.4781  -11.8699 C   0  0  0  0  0  0  0  0  0  0  0  0
   -6.6729   17.6802  -10.8182 C   0  0  0  0  0  0  0  0  0  0  0  0
   -7.1385   17.9240   -9.5410 C   0  0  0  0  0  0  0  0  0  0  0  0
   -6.5783   18.2179  -13.2362 N   0  0  0  0  0  0  0  0  0  0  0  0
   -6.7019   19.0647  -14.1028 O   0  0  0  0  0  0  0  0  0  0  0  0
   -6.0381   17.1571  -13.4936 O   0  0  0  0  0  0  0  0  0  0  0  0
 11 12  2  0  0  0
 12  5  1  0  0  0
  5  6  1  0  0  0
  5  7  2  0  0  0
  7  8  1  0  0  0
  7  2  1  0  0  0
  2  3  1  0  0  0
  2  1  1  0  0  0
  1 26  1  0  0  0
  1 13  1  0  0  0
 26 27  1  0  0  0
 27 29  1  0  0  0
 29 31  1  0  0  0
 31 36  1  0  0  0
 31 32  2  0  0  0
 32 33  1  0  0  0
 33 34  2  0  0  0
 34 37  1  0  0  0
 34 35  1  0  0  0
 37 38  1  0  0  0
 37 39  2  0  0  0
 35 36  2  0  0  0
 13 15  1  0  0  0
 15 17  1  0  0  0
 17 22  1  0  0  0
 17 18  2  0  0  0
 18 19  1  0  0  0
 19 20  2  0  0  0
 20 23  1  0  0  0
 20 21  1  0  0  0
 23 24  1  0  0  0
 23 25  2  0  0  0
 21 22  2  0  0  0
  6  9  1  0  0  0
  8 10  1  0  0  0
  3  4  1  0  0  0
 27 28  1  0  0  0
 29 30  1  0  0  0
 13 14  1  0  0  0
 15 16  1  0  0  0
M  CHG 1  23   1
M  CHG 1  24  -1
M  CHG 1  37   1
M  CHG 1  38  -1
M  END
> <minimizedAffinity>
-8.29288

$$$$
ZINC000002965897


 31 34  0  0  0  0  0  0  0  0999 V2000
   -8.3952   17.5163   -6.8377 N   0  0  0  0  0  0  0  0  0  0  0  0
   -8.1934   18.2021   -7.9288 C   0  0  0  0  0  0  0  0  0  0  0  0
   -8.9123   19.7856   -8.2899 S   0  0  0  0  0  0  0  0  0  0  0  0
   -9.0281   19.5790  -10.0922 C   0  0  0  0  0  0  0  0  0  0  0  0
   -7.6353   19.2776  -10.6345 C   0  0  0  0  0  0  0  0  0  0  0  0
   -7.0970   17.9313  -10.2076 C   0  0  0  0  0  0  0  0  0  0  0  0
   -7.3378   17.5813   -8.8178 N   0  0  0  0  0  0  0  0  0  0  0  0
   -6.6759   16.4812   -8.0869 C   0  0  0  0  0  0  0  0  0  0  0  0
   -5.3682   16.8697   -7.6613 O   0  0  0  0  0  0  0  0  0  0  0  0
   -7.6030   16.2775   -6.8708 C   0  0  0  0  0  0  0  0  0  0  0  0
   -9.0711   19.7983   -2.6952 H   0  0  0  0  0  0  0  0  0  0  0  0
  -10.0708   19.6005   -4.3418 C   0  0  0  0  0  0  0  0  0  0  0  0
  -10.8877   18.6618   -3.7286 C   0  0  0  0  0  0  0  0  0  0  0  0
  -10.8748   17.3437   -4.1503 C   0  0  0  0  0  0  0  0  0  0  0  0
  -10.0460   16.9542   -5.1865 C   0  0  0  0  0  0  0  0  0  0  0  0
   -9.2189   17.8965   -5.8100 C   0  0  0  0  0  0  0  0  0  0  0  0
   -9.2406   19.2241   -5.3850 C   0  0  0  0  0  0  0  0  0  0  0  0
   -9.4355   21.1832   -2.6845 C   0  0  0  0  0  0  0  0  0  0  0  0
  -10.0890   20.8937   -3.9219 O   0  0  0  0  0  0  0  0  0  0  0  0
  -10.0346   15.6579   -5.5998 O   0  0  0  0  0  0  0  0  0  0  0  0
   -9.6340   14.6754   -4.6427 C   0  0  0  0  0  0  0  0  0  0  0  0
   -6.6123   15.2374   -8.9355 C   0  0  0  0  0  0  0  0  0  0  0  0
   -5.4200   14.5504   -9.0636 C   0  0  0  0  0  0  0  0  0  0  0  0
   -5.3563   13.4088   -9.8413 C   0  0  0  0  0  0  0  0  0  0  0  0
   -6.4894   12.9512  -10.4939 C   0  0  0  0  0  0  0  0  0  0  0  0
   -7.6903   13.6429  -10.3644 C   0  0  0  0  0  0  0  0  0  0  0  0
   -7.7484   14.7829   -9.5795 C   0  0  0  0  0  0  0  0  0  0  0  0
   -6.4286   11.8285  -11.2588 O   0  0  0  0  0  0  0  0  0  0  0  0
   -5.5139   10.8111  -10.8461 C   0  0  0  0  0  0  0  0  0  0  0  0
   -8.8056   13.1974  -11.0026 O   0  0  0  0  0  0  0  0  0  0  0  0
   -9.0928   13.7674  -12.2811 C   0  0  0  0  0  0  0  0  0  0  0  0
 18 19  1  0  0  0
 19 12  1  0  0  0
 12 17  2  0  0  0
 12 13  1  0  0  0
 13 14  2  0  0  0
 14 15  1  0  0  0
 15 20  1  0  0  0
 15 16  2  0  0  0
 20 21  1  0  0  0
 16  1  1  0  0  0
 16 17  1  0  0  0
  1 10  1  0  0  0
  1  2  2  0  0  0
  2  7  1  0  0  0
  2  3  1  0  0  0
  3  4  1  0  0  0
  4  5  1  0  0  0
  5  6  1  0  0  0
  6  7  1  0  0  0
  7  8  1  0  0  0
  8  9  1  0  0  0
  8 22  1  0  0  0
  8 10  1  0  0  0
 22 27  1  0  0  0
 22 23  2  0  0  0
 23 24  1  0  0  0
 24 25  2  0  0  0
 25 28  1  0  0  0
 25 26  1  0  0  0
 28 29  1  0  0  0
 26 30  1  0  0  0
 26 27  2  0  0  0
 30 31  1  0  0  0
  9 11  1  0  0  0
M  CHG 1   1   1
M  END
> <minimizedAffinity>
-7.31530

$$$$
ZINC000003897400


 24 25  0  0  0  0  0  0  0  0999 V2000
   -6.3120   15.0891  -10.4827 N   0  0  0  0  0  0  0  0  0  0  0  0
   -4.8764   19.1507   -7.8485 H   0  0  0  0  0  0  0  0  0  0  0  0
   -7.0421   14.1421  -11.3291 C   0  0  0  0  0  0  0  0  0  0  0  0
   -7.6482   13.1401  -10.5101 O   0  0  0  0  0  0  0  0  0  0  0  0
   -6.7218   12.3983   -9.7141 C   0  0  0  0  0  0  0  0  0  0  0  0
   -5.7375   11.6653  -10.6292 C   0  0  0  0  0  0  0  0  0  0  0  0
   -6.4482   10.7318  -11.4450 O   0  0  0  0  0  0  0  0  0  0  0  0
   -5.0238   12.6863  -11.5205 C   0  0  0  0  0  0  0  0  0  0  0  0
   -4.1549   12.0046  -12.4273 O   0  0  0  0  0  0  0  0  0  0  0  0
   -6.0706   13.4794  -12.3093 C   0  0  0  0  0  0  0  0  0  0  0  0
   -5.4200   14.4831  -13.0912 O   0  0  0  0  0  0  0  0  0  0  0  0
   -4.9682   19.0595   -7.6673 H   0  0  0  0  0  0  0  0  0  0  0  0
   -4.9682   19.0595   -7.6673 H   0  0  0  0  0  0  0  0  0  0  0  0
   -4.9682   19.0595   -7.6673 H   0  0  0  0  0  0  0  0  0  0  0  0
   -8.1074   17.8353   -8.8265 C   0  0  0  0  0  0  0  0  0  0  0  0
   -7.5808   16.5829   -9.0734 C   0  0  0  0  0  0  0  0  0  0  0  0
   -6.8456   16.3556  -10.2300 C   0  0  0  0  0  0  0  0  0  0  0  0
   -6.6424   17.3893  -11.1348 C   0  0  0  0  0  0  0  0  0  0  0  0
   -7.1715   18.6402  -10.8827 C   0  0  0  0  0  0  0  0  0  0  0  0
   -7.9081   18.8622   -9.7327 C   0  0  0  0  0  0  0  0  0  0  0  0
   -8.5715   20.4355   -9.4192 Cl  0  0  0  0  0  0  0  0  0  0  0  0
   -8.4668   18.8396   -6.7434 O   0  0  0  0  0  0  0  0  0  0  0  0
   -8.8908   18.0783   -7.5945 N   0  0  0  0  0  0  0  0  0  0  0  0
   -9.9617   17.5208   -7.4339 O   0  0  0  0  0  0  0  0  0  0  0  0
 22 23  1  0  0  0
 23 24  2  0  0  0
 23 15  1  0  0  0
 15 20  2  0  0  0
 15 16  1  0  0  0
 16 17  2  0  0  0
 17  1  1  0  0  0
 17 18  1  0  0  0
  1  3  1  0  0  0
  3 10  1  0  0  0
  3  4  1  0  0  0
  4  5  1  0  0  0
  5  6  1  0  0  0
  6  7  1  0  0  0
  6  8  1  0  0  0
  8  9  1  0  0  0
  8 10  1  0  0  0
 10 11  1  0  0  0
 18 19  2  0  0  0
 19 20  1  0  0  0
 20 21  1  0  0  0
  1  2  1  0  0  0
  7 12  1  0  0  0
  9 13  1  0  0  0
 11 14  1  0  0  0
M  CHG 1  22  -1
M  CHG 1  23   1
M  END
> <minimizedAffinity>
-7.68120

$$$$
ZINC000013481493


 28 29  0  0  0  0  0  0  0  0999 V2000
   -6.6615   16.2547   -8.3739 C   0  0  0  0  0  0  0  0  0  0  0  0
   -5.7892   16.4310   -9.4920 O   0  0  0  0  0  0  0  0  0  0  0  0
   -6.1857   15.7106  -10.6607 C   0  0  0  0  0  0  0  0  0  0  0  0
   -6.1929   14.2104  -10.3559 C   0  0  0  0  0  0  0  0  0  0  0  0
   -4.8714   13.7858  -10.0161 O   0  0  0  0  0  0  0  0  0  0  0  0
   -7.1368   13.9407   -9.1799 C   0  0  0  0  0  0  0  0  0  0  0  0
   -7.0954   12.5529   -8.8423 O   0  0  0  0  0  0  0  0  0  0  0  0
   -6.6878   14.7763   -7.9769 C   0  0  0  0  0  0  0  0  0  0  0  0
   -7.6028   14.5869   -6.8957 O   0  0  0  0  0  0  0  0  0  0  0  0
  -10.4707   17.6196   -9.4368 H   0  0  0  0  0  0  0  0  0  0  0  0
  -10.4707   17.6196   -9.4368 H   0  0  0  0  0  0  0  0  0  0  0  0
  -10.4707   17.6196   -9.4368 H   0  0  0  0  0  0  0  0  0  0  0  0
   -5.1998   15.9963  -11.7953 C   0  0  0  0  0  0  0  0  0  0  0  0
   -5.5683   15.2378  -12.9489 O   0  0  0  0  0  0  0  0  0  0  0  0
   -8.8037   11.8141   -9.4499 H   0  0  0  0  0  0  0  0  0  0  0  0
   -7.9802   16.6767   -8.7272 O   0  0  0  0  0  0  0  0  0  0  0  0
   -8.5358   18.9695   -9.0627 C   0  0  0  0  0  0  0  0  0  0  0  0
   -8.9656   20.1774   -8.5516 C   0  0  0  0  0  0  0  0  0  0  0  0
   -9.2620   20.2908   -7.1886 C   0  0  0  0  0  0  0  0  0  0  0  0
   -9.1214   19.1796   -6.3514 C   0  0  0  0  0  0  0  0  0  0  0  0
   -8.6918   17.9774   -6.8690 C   0  0  0  0  0  0  0  0  0  0  0  0
   -8.4033   17.8638   -8.2224 C   0  0  0  0  0  0  0  0  0  0  0  0
   -9.7214   21.5766   -6.6377 C   0  0  0  0  0  0  0  0  0  0  0  0
   -8.9577   22.5313   -6.5945 O   0  0  0  0  0  0  0  0  0  0  0  0
  -10.8669   21.6903   -6.2232 O   0  0  0  0  0  0  0  0  0  0  0  0
   -6.2545   18.8243   -8.6420 H   0  0  0  0  0  0  0  0  0  0  0  0
   -8.2815   20.0545  -11.1638 C   0  0  0  0  0  0  0  0  0  0  0  0
   -8.2467   18.8556  -10.3868 O   0  0  0  0  0  0  0  0  0  0  0  0
 27 28  1  0  0  0
 28 17  1  0  0  0
 17 22  2  0  0  0
 17 18  1  0  0  0
 18 19  2  0  0  0
 19 23  1  0  0  0
 19 20  1  0  0  0
 23 24  2  0  0  0
 23 25  1  0  0  0
 20 21  2  0  0  0
 21 22  1  0  0  0
 22 16  1  0  0  0
 16  1  1  0  0  0
  1  8  1  0  0  0
  1  2  1  0  0  0
  2  3  1  0  0  0
  3 13  1  0  0  0
  3  4  1  0  0  0
 13 14  1  0  0  0
  4  5  1  0  0  0
  4  6  1  0  0  0
  6  7  1  0  0  0
  6  8  1  0  0  0
  8  9  1  0  0  0
 25 26  1  0  0  0
 14 15  1  0  0  0
  5 10  1  0  0  0
  7 11  1  0  0  0
  9 12  1  0  0  0
M  END
> <minimizedAffinity>
-7.36842

$$$$
ZINC000020762664


 32 35  0  0  0  0  0  0  0  0999 V2000
   -9.3983   19.1934   -5.6027 N   0  0  0  0  0  0  0  0  0  0  0  0
   -9.8493   18.0023   -6.0434 C   0  0  0  0  0  0  0  0  0  0  0  0
  -10.9103   17.5668   -5.6399 O   0  0  0  0  0  0  0  0  0  0  0  0
   -9.1239   17.2937   -6.9313 N   0  0  0  0  0  0  0  0  0  0  0  0
   -9.6511   16.0514   -7.5155 C   0  0  0  0  0  0  0  0  0  0  0  0
   -8.7743   14.8739   -7.0715 C   0  0  0  0  0  0  0  0  0  0  0  0
   -7.3248   15.2614   -7.2242 C   0  0  0  0  0  0  0  0  0  0  0  0
   -6.8834   16.5324   -7.3397 C   0  0  0  0  0  0  0  0  0  0  0  0
   -5.5289   16.4804   -7.4528 N   0  0  0  0  0  0  0  0  0  0  0  0
   -5.1789   15.1740   -7.4064 C   0  0  0  0  0  0  0  0  0  0  0  0
   -6.2610   14.4532   -7.2700 N   0  0  0  0  0  0  0  0  0  0  0  0
   -7.7839   17.7474   -7.3467 C   0  0  0  0  0  0  0  0  0  0  0  0
  -12.6188   17.9879   -2.6846 H   0  0  0  0  0  0  0  0  0  0  0  0
  -12.6188   17.9879   -2.6846 H   0  0  0  0  0  0  0  0  0  0  0  0
   -7.8363   18.3392   -8.7316 C   0  0  0  0  0  0  0  0  0  0  0  0
   -8.4528   19.5589   -8.9375 C   0  0  0  0  0  0  0  0  0  0  0  0
   -8.5035   20.1060  -10.2064 C   0  0  0  0  0  0  0  0  0  0  0  0
   -7.9364   19.4317  -11.2751 C   0  0  0  0  0  0  0  0  0  0  0  0
   -7.8516   19.7449  -12.6009 O   0  0  0  0  0  0  0  0  0  0  0  0
   -6.8183   18.8941  -13.1317 C   0  0  0  0  0  0  0  0  0  0  0  0
   -6.8413   17.7456  -12.2635 O   0  0  0  0  0  0  0  0  0  0  0  0
   -7.3151   18.2022  -11.0676 C   0  0  0  0  0  0  0  0  0  0  0  0
   -7.2627   17.6632   -9.7928 C   0  0  0  0  0  0  0  0  0  0  0  0
  -10.2349   20.0134   -4.7230 C   0  0  0  0  0  0  0  0  0  0  0  0
  -10.7720   21.1911   -5.4949 C   0  0  0  0  0  0  0  0  0  0  0  0
  -11.8565   21.6485   -5.2219 O   0  0  0  0  0  0  0  0  0  0  0  0
   -9.8179   23.1648   -6.4297 C   0  0  0  0  0  0  0  0  0  0  0  0
  -10.0455   21.7318   -6.4857 O   0  0  0  0  0  0  0  0  0  0  0  0
   -9.3975   20.5148   -3.5447 C   0  0  0  0  0  0  0  0  0  0  0  0
  -10.1691   20.2974   -2.2416 C   0  0  0  0  0  0  0  0  0  0  0  0
  -10.6124   18.5453   -2.0865 S   0  0  0  0  0  0  0  0  0  0  0  0
   -9.0024   17.7110   -2.1366 C   0  0  0  0  0  0  0  0  0  0  0  0
 27 28  1  0  0  0
 28 25  1  0  0  0
 25 26  2  0  0  0
 25 24  1  0  0  0
 24 29  1  0  0  0
 24  1  1  0  0  0
 29 30  1  0  0  0
 30 31  1  0  0  0
 31 32  1  0  0  0
  1  2  1  0  0  0
  2  3  2  0  0  0
  2  4  1  0  0  0
  4 12  1  0  0  0
  4  5  1  0  0  0
  5  6  1  0  0  0
  6  7  1  0  0  0
  7 11  1  0  0  0
  7  8  2  0  0  0
  8  9  1  0  0  0
  8 12  1  0  0  0
  9 10  1  0  0  0
 10 11  2  0  0  0
 12 15  1  0  0  0
 15 23  1  0  0  0
 15 16  2  0  0  0
 16 17  1  0  0  0
 17 18  2  0  0  0
 18 22  1  0  0  0
 18 19  1  0  0  0
 19 20  1  0  0  0
 20 21  1  0  0  0
 21 22  1  0  0  0
 22 23  2  0  0  0
  1 13  1  0  0  0
  9 14  1  0  0  0
M  END
> <minimizedAffinity>
-7.56881

$$$$
ZINC000026706235


 30 32  0  0  0  0  0  0  0  0999 V2000
   -6.3856   13.3257   -8.5186 N   0  0  0  0  0  0  0  0  0  0  0  0
   -5.1906   14.1552   -8.6560 C   0  0  0  0  0  0  0  0  0  0  0  0
   -4.9914   14.9576   -7.3893 C   0  0  0  0  0  0  0  0  0  0  0  0
   -5.6582   16.3364   -7.5460 C   0  0  0  0  0  0  0  0  0  0  0  0
   -6.9503   16.2241   -8.2525 N   0  0  0  0  0  0  0  0  0  0  0  0
   -7.8903   15.1552   -7.9842 C   0  0  0  0  0  0  0  0  0  0  0  0
   -7.5900   13.9524   -8.9087 C   0  0  0  0  0  0  0  0  0  0  0  0
   -8.6835    9.2125   -9.7603 H   0  0  0  0  0  0  0  0  0  0  0  0
   -7.2741   17.1732   -9.2045 C   0  0  0  0  0  0  0  0  0  0  0  0
   -8.2051   18.1669   -8.9117 C   0  0  0  0  0  0  0  0  0  0  0  0
   -8.5122   19.1100   -9.8898 C   0  0  0  0  0  0  0  0  0  0  0  0
   -9.3242   19.9941   -9.6636 O   0  0  0  0  0  0  0  0  0  0  0  0
   -7.9003   19.0346  -11.0908 N   0  0  0  0  0  0  0  0  0  0  0  0
   -8.1947   19.9533  -12.0535 C   0  0  0  0  0  0  0  0  0  0  0  0
   -7.5973   19.9014  -13.2644 C   0  0  0  0  0  0  0  0  0  0  0  0
   -6.6621   18.8952  -13.5465 C   0  0  0  0  0  0  0  0  0  0  0  0
   -6.3601   17.9717  -12.5917 C   0  0  0  0  0  0  0  0  0  0  0  0
   -6.9920   18.0423  -11.3356 C   0  0  0  0  0  0  0  0  0  0  0  0
   -6.6931   17.1432  -10.4013 N   0  0  0  0  0  0  0  0  0  0  0  0
   -8.8569   18.2201   -7.5834 N   0  0  0  0  0  0  0  0  0  0  0  0
   -8.3268   18.8249   -6.6687 O   0  0  0  0  0  0  0  0  0  0  0  0
   -9.9232   17.6590   -7.4054 O   0  0  0  0  0  0  0  0  0  0  0  0
   -6.2070   12.1168   -9.3338 C   0  0  0  0  0  0  0  0  0  0  0  0
   -7.5681   13.0134  -11.1945 N   0  0  0  0  0  0  0  0  0  0  0  0
   -6.4099   12.4570  -10.7879 C   0  0  0  0  0  0  0  0  0  0  0  0
   -5.5308   12.2302  -11.5921 O   0  0  0  0  0  0  0  0  0  0  0  0
   -8.0414   12.8907  -12.6180 H   0  0  0  0  0  0  0  0  0  0  0  0
   -9.2547   13.5700  -12.8759 C   0  0  0  0  0  0  0  0  0  0  0  0
   -7.7654   13.3441  -12.6080 C   0  0  0  0  0  0  0  0  0  0  0  0
   -6.9874   14.6171  -12.9472 C   0  0  0  0  0  0  0  0  0  0  0  0
 28 29  1  0  0  0
 29 30  1  0  0  0
 29 24  1  0  0  0
 24 25  1  0  0  0
 25 26  2  0  0  0
 25 23  1  0  0  0
 23  1  1  0  0  0
  1  7  1  0  0  0
  1  2  1  0  0  0
  2  3  1  0  0  0
  3  4  1  0  0  0
  4  5  1  0  0  0
  5  9  1  0  0  0
  5  6  1  0  0  0
  9 19  1  0  0  0
  9 10  2  0  0  0
 10 20  1  0  0  0
 10 11  1  0  0  0
 20 21  1  0  0  0
 20 22  2  0  0  0
 11 12  2  0  0  0
 11 13  1  0  0  0
 13 18  1  0  0  0
 13 14  1  0  0  0
 14 15  2  0  0  0
 15 16  1  0  0  0
 16 17  2  0  0  0
 17 18  1  0  0  0
 18 19  2  0  0  0
  6  7  1  0  0  0
 24 27  1  0  0  0
  1  8  1  0  0  0
M  CHG 1   1   1
M  CHG 1  20   1
M  CHG 1  21  -1
M  END
> <minimizedAffinity>
-8.44665

$$$$
ZINC000267312402


 24 25  0  0  0  0  0  0  0  0999 V2000
   -6.7891   17.3481   -8.5037 N   0  0  0  0  0  0  0  0  0  0  0  0
   -7.9863   16.9719   -8.0123 C   0  0  0  0  0  0  0  0  0  0  0  0
   -8.7533   16.3361   -8.7043 O   0  0  0  0  0  0  0  0  0  0  0  0
   -4.4217   18.3026   -9.6096 H   0  0  0  0  0  0  0  0  0  0  0  0
   -6.6502   18.1124  -10.7970 C   0  0  0  0  0  0  0  0  0  0  0  0
   -6.3386   17.8686  -12.1243 C   0  0  0  0  0  0  0  0  0  0  0  0
   -5.8611   16.6281  -12.5062 C   0  0  0  0  0  0  0  0  0  0  0  0
   -5.6934   15.6286  -11.5662 C   0  0  0  0  0  0  0  0  0  0  0  0
   -6.0017   15.8640  -10.2393 C   0  0  0  0  0  0  0  0  0  0  0  0
   -6.4764   17.1069   -9.8481 C   0  0  0  0  0  0  0  0  0  0  0  0
   -5.1820   14.3030  -11.9813 N   0  0  0  0  0  0  0  0  0  0  0  0
   -4.4892   13.6519  -11.2199 O   0  0  0  0  0  0  0  0  0  0  0  0
   -5.4540   13.8633  -13.0842 O   0  0  0  0  0  0  0  0  0  0  0  0
   -8.4234   19.6950  -10.8778 C   0  0  0  0  0  0  0  0  0  0  0  0
   -7.1194   19.3316  -10.4199 O   0  0  0  0  0  0  0  0  0  0  0  0
   -8.3722   17.3411   -6.6031 C   0  0  0  0  0  0  0  0  0  0  0  0
   -9.1935   18.6318   -6.6207 C   0  0  0  0  0  0  0  0  0  0  0  0
   -9.3614   16.0049   -5.8773 S   0  0  0  0  0  0  0  0  0  0  0  0
  -10.4704   16.8660   -4.8128 C   0  0  0  0  0  0  0  0  0  0  0  0
  -10.1571   17.5019   -3.6529 C   0  0  0  0  0  0  0  0  0  0  0  0
  -11.3265   18.0181   -3.1810 N   0  0  0  0  0  0  0  0  0  0  0  0
  -12.2642   17.7078   -4.0062 N   0  0  0  0  0  0  0  0  0  0  0  0
  -11.7892   17.0286   -4.9894 N   0  0  0  0  0  0  0  0  0  0  0  0
  -11.0801   14.3892  -12.1210 H   0  0  0  0  0  0  0  0  0  0  0  0
 14 15  1  0  0  0
 15  5  1  0  0  0
  5 10  2  0  0  0
  5  6  1  0  0  0
  6  7  2  0  0  0
  7  8  1  0  0  0
  8 11  1  0  0  0
  8  9  2  0  0  0
 11 12  1  0  0  0
 11 13  2  0  0  0
  9 10  1  0  0  0
 10  1  1  0  0  0
  1  2  1  0  0  0
  2  3  2  0  0  0
  2 16  1  0  0  0
 16 17  1  0  0  0
 16 18  1  0  0  0
 18 19  1  0  0  0
 19 23  1  0  0  0
 19 20  2  0  0  0
 20 21  1  0  0  0
 21 22  1  0  0  0
 22 23  2  0  0  0
  1  4  1  0  0  0
 21 24  1  0  0  0
M  CHG 1  11   1
M  CHG 1  12  -1
M  END
> <minimizedAffinity>
-7.30785

$$$$
ZINC000209469482


 22 24  0  0  0  0  0  0  0  0999 V2000
   -6.5003   15.0185   -8.4872 S   0  0  0  0  0  0  0  0  0  0  0  0
   -5.1508   15.1795   -8.0726 O   0  0  0  0  0  0  0  0  0  0  0  0
   -7.5372   14.5959   -7.6120 O   0  0  0  0  0  0  0  0  0  0  0  0
   -6.4784   13.9381   -9.7420 N   0  0  0  0  0  0  0  0  0  0  0  0
   -5.3227   13.6583  -10.6130 C   0  0  0  0  0  0  0  0  0  0  0  0
   -5.5692   12.2270  -11.1502 C   0  0  0  0  0  0  0  0  0  0  0  0
   -7.1078   12.2238  -11.3482 C   0  0  0  0  0  0  0  0  0  0  0  0
   -7.4338   13.0506  -12.6063 C   0  0  0  0  0  0  0  0  0  0  0  0
   -8.5817   13.9061  -12.2672 N   0  0  0  0  0  0  0  0  0  0  0  0
   -8.7074   13.9897  -10.8044 C   0  0  0  0  0  0  0  0  0  0  0  0
   -7.6044   13.0978  -10.1651 C   0  0  0  0  0  0  0  0  0  0  0  0
   -5.6194   11.4962   -2.8618 H   0  0  0  0  0  0  0  0  0  0  0  0
   -5.6194   11.4962   -2.8618 H   0  0  0  0  0  0  0  0  0  0  0  0
   -7.8042   19.0096  -10.1789 C   0  0  0  0  0  0  0  0  0  0  0  0
   -6.9315   18.2087  -10.8916 C   0  0  0  0  0  0  0  0  0  0  0  0
   -6.5334   16.9899  -10.3750 C   0  0  0  0  0  0  0  0  0  0  0  0
   -7.0074   16.5722   -9.1455 C   0  0  0  0  0  0  0  0  0  0  0  0
   -7.8790   17.3738   -8.4321 C   0  0  0  0  0  0  0  0  0  0  0  0
   -8.2742   18.5943   -8.9470 C   0  0  0  0  0  0  0  0  0  0  0  0
   -8.5386   21.2230   -9.9813 O   0  0  0  0  0  0  0  0  0  0  0  0
   -8.2305   20.3147  -10.7321 N   0  0  0  0  0  0  0  0  0  0  0  0
   -8.2684   20.4819  -11.9379 O   0  0  0  0  0  0  0  0  0  0  0  0
 20 21  1  0  0  0
 21 22  2  0  0  0
 21 14  1  0  0  0
 14 19  2  0  0  0
 14 15  1  0  0  0
 15 16  2  0  0  0
 16 17  1  0  0  0
 17  1  1  0  0  0
 17 18  2  0  0  0
  1  2  2  0  0  0
  1  3  2  0  0  0
  1  4  1  0  0  0
  4 11  1  0  0  0
  4  5  1  0  0  0
  5  6  1  0  0  0
  6  7  1  0  0  0
  7 11  1  0  0  0
  7  8  1  0  0  0
  8  9  1  0  0  0
  9 10  1  0  0  0
 10 11  1  0  0  0
 18 19  1  0  0  0
  9 12  1  0  0  0
  9 13  1  0  0  0
M  CHG 1   9   1
M  CHG 1  20  -1
M  CHG 1  21   1
M  END
> <minimizedAffinity>
-7.05978

$$$$
ZINC000035421952


 27 28  0  0  0  0  0  0  0  0999 V2000
   -8.5337   16.8293   -6.9891 N   0  0  0  0  0  0  0  0  0  0  0  0
   -8.6406   15.5199   -7.2898 C   0  0  0  0  0  0  0  0  0  0  0  0
   -9.4350   14.8217   -6.6908 O   0  0  0  0  0  0  0  0  0  0  0  0
   -7.7912   14.9325   -8.3487 C   0  0  0  0  0  0  0  0  0  0  0  0
   -6.4358   14.6995   -8.1073 C   0  0  0  0  0  0  0  0  0  0  0  0
   -5.6447   14.1526   -9.0931 C   0  0  0  0  0  0  0  0  0  0  0  0
   -6.1983   13.8310  -10.3344 C   0  0  0  0  0  0  0  0  0  0  0  0
   -7.5542   14.0641  -10.5757 C   0  0  0  0  0  0  0  0  0  0  0  0
   -8.3461   14.6058   -9.5876 C   0  0  0  0  0  0  0  0  0  0  0  0
   -5.3761   13.2619  -11.3594 C   0  0  0  0  0  0  0  0  0  0  0  0
   -4.7238   12.8104  -12.1726 N   0  0  0  0  0  0  0  0  0  0  0  0
   -7.6380   17.6887   -7.7670 C   0  0  0  0  0  0  0  0  0  0  0  0
   -8.3912   18.2506   -8.9743 C   0  0  0  0  0  0  0  0  0  0  0  0
   -7.4896   18.1948  -10.2092 C   0  0  0  0  0  0  0  0  0  0  0  0
   -8.1961   20.4841  -10.2784 C   0  0  0  0  0  0  0  0  0  0  0  0
   -7.7055   19.3587  -11.0096 O   0  0  0  0  0  0  0  0  0  0  0  0
   -9.3133   17.3932   -5.8843 C   0  0  0  0  0  0  0  0  0  0  0  0
   -8.7751   18.7828   -5.5376 C   0  0  0  0  0  0  0  0  0  0  0  0
   -9.8984   19.6404   -5.0141 C   0  0  0  0  0  0  0  0  0  0  0  0
  -10.5180   19.2940   -4.0307 O   0  0  0  0  0  0  0  0  0  0  0  0
  -10.2143   20.7922   -5.6386 N   0  0  0  0  0  0  0  0  0  0  0  0
   -9.4796   21.2277   -6.8361 C   0  0  0  0  0  0  0  0  0  0  0  0
   -9.0205   22.6745   -6.6259 C   0  0  0  0  0  0  0  0  0  0  0  0
  -10.1785   23.5058   -6.2711 N   0  0  0  0  0  0  0  0  0  0  0  0
  -10.7719   23.0771   -4.9975 C   0  0  0  0  0  0  0  0  0  0  0  0
  -11.3068   21.6438   -5.1444 C   0  0  0  0  0  0  0  0  0  0  0  0
   -4.5609   14.5058   -1.8302 H   0  0  0  0  0  0  0  0  0  0  0  0
 15 16  1  0  0  0
 16 14  1  0  0  0
 14 13  1  0  0  0
 13 12  1  0  0  0
 12  1  1  0  0  0
  1 17  1  0  0  0
  1  2  1  0  0  0
 17 18  1  0  0  0
 18 19  1  0  0  0
 19 20  2  0  0  0
 19 21  1  0  0  0
 21 26  1  0  0  0
 21 22  1  0  0  0
 22 23  1  0  0  0
 23 24  1  0  0  0
 24 25  1  0  0  0
 25 26  1  0  0  0
  2  3  2  0  0  0
  2  4  1  0  0  0
  4  9  1  0  0  0
  4  5  2  0  0  0
  5  6  1  0  0  0
  6  7  2  0  0  0
  7 10  1  0  0  0
  7  8  1  0  0  0
 10 11  3  0  0  0
  8  9  2  0  0  0
 24 27  1  0  0  0
M  END
> <minimizedAffinity>
-6.60017

$$$$
ZINC000079021997


 29 30  0  0  0  0  0  0  0  0999 V2000
   -8.4297   17.7259   -6.8340 C   0  0  0  0  0  0  0  0  0  0  0  0
   -7.5916   17.7718   -7.9405 C   0  0  0  0  0  0  0  0  0  0  0  0
   -7.4705   16.6663   -8.7596 C   0  0  0  0  0  0  0  0  0  0  0  0
   -8.1823   15.5148   -8.4791 C   0  0  0  0  0  0  0  0  0  0  0  0
   -9.0179   15.4655   -7.3780 C   0  0  0  0  0  0  0  0  0  0  0  0
   -9.1397   16.5654   -6.5520 C   0  0  0  0  0  0  0  0  0  0  0  0
   -8.0244   14.1066   -9.5263 S   0  0  0  0  0  0  0  0  0  0  0  0
   -7.2230   13.1693   -8.8201 O   0  0  0  0  0  0  0  0  0  0  0  0
   -9.3307   13.8106  -10.0005 O   0  0  0  0  0  0  0  0  0  0  0  0
   -7.1422   14.5746  -10.8473 N   0  0  0  0  0  0  0  0  0  0  0  0
   -7.8074   15.0591  -12.0662 C   0  0  0  0  0  0  0  0  0  0  0  0
   -7.1782   16.3984  -12.4647 C   0  0  0  0  0  0  0  0  0  0  0  0
   -5.7219   16.2384  -12.5735 N   0  0  0  0  0  0  0  0  0  0  0  0
   -5.0984   17.4513  -13.1191 C   0  0  0  0  0  0  0  0  0  0  0  0
   -5.1273   15.8772  -11.2797 C   0  0  0  0  0  0  0  0  0  0  0  0
   -5.6724   14.5224  -10.8306 C   0  0  0  0  0  0  0  0  0  0  0  0
  -10.0340   16.5119   -5.3740 N   0  0  0  0  0  0  0  0  0  0  0  0
  -11.2082   16.8155   -5.4865 O   0  0  0  0  0  0  0  0  0  0  0  0
   -9.5959   16.1643   -4.2920 O   0  0  0  0  0  0  0  0  0  0  0  0
   -8.5542   18.8419   -6.0034 N   0  0  0  0  0  0  0  0  0  0  0  0
   -9.3092   25.0474   -6.5217 H   0  0  0  0  0  0  0  0  0  0  0  0
   -9.3246   20.0052   -6.4500 C   0  0  0  0  0  0  0  0  0  0  0  0
   -9.7557   20.8285   -5.2346 C   0  0  0  0  0  0  0  0  0  0  0  0
  -10.2717   19.8915   -4.1408 C   0  0  0  0  0  0  0  0  0  0  0  0
  -10.8508   21.7823   -5.6369 C   0  0  0  0  0  0  0  0  0  0  0  0
  -11.9753   21.6192   -5.2259 O   0  0  0  0  0  0  0  0  0  0  0  0
  -10.5772   22.8134   -6.4517 O   0  0  0  0  0  0  0  0  0  0  0  0
   -8.6055   24.1939   -6.0819 C   0  0  0  0  0  0  0  0  0  0  0  0
  -10.1066   24.0381   -5.8300 C   0  0  0  0  0  0  0  0  0  0  0  0
 28 29  1  0  0  0
 29 27  1  0  0  0
 27 25  1  0  0  0
 25 26  2  0  0  0
 25 23  1  0  0  0
 23 24  1  0  0  0
 23 22  1  0  0  0
 22 20  1  0  0  0
 20  1  1  0  0  0
  1  6  2  0  0  0
  1  2  1  0  0  0
  2  3  2  0  0  0
  3  4  1  0  0  0
  4  7  1  0  0  0
  4  5  2  0  0  0
  7  8  2  0  0  0
  7  9  2  0  0  0
  7 10  1  0  0  0
 10 16  1  0  0  0
 10 11  1  0  0  0
 11 12  1  0  0  0
 12 13  1  0  0  0
 13 14  1  0  0  0
 13 15  1  0  0  0
 15 16  1  0  0  0
  5  6  1  0  0  0
  6 17  1  0  0  0
 17 18  1  0  0  0
 17 19  2  0  0  0
 20 21  1  0  0  0
M  CHG 1  17   1
M  CHG 1  18  -1
M  END
> <minimizedAffinity>
-7.32340

$$$$
ZINC000104203186


 23 24  0  0  0  0  0  0  0  0999 V2000
   -9.3058   20.1047   -6.5511 C   0  0  0  0  0  0  0  0  0  0  0  0
   -9.0654   19.6654   -7.7902 C   0  0  0  0  0  0  0  0  0  0  0  0
   -8.8732   20.5755   -8.8375 N   0  0  0  0  0  0  0  0  0  0  0  0
   -8.3555   20.1416  -10.0060 C   0  0  0  0  0  0  0  0  0  0  0  0
   -8.1812   20.9196  -10.9251 O   0  0  0  0  0  0  0  0  0  0  0  0
   -8.0031   18.7216  -10.1609 C   0  0  0  0  0  0  0  0  0  0  0  0
   -7.2255   18.3219  -11.1945 C   0  0  0  0  0  0  0  0  0  0  0  0
   -8.4762   17.7874   -9.2349 N   0  0  0  0  0  0  0  0  0  0  0  0
   -8.9941   18.2164   -8.0659 C   0  0  0  0  0  0  0  0  0  0  0  0
   -9.4077   17.4169   -7.2481 O   0  0  0  0  0  0  0  0  0  0  0  0
   -9.1239   21.7394   -6.2761 H   0  0  0  0  0  0  0  0  0  0  0  0
   -9.1239   21.7394   -6.2761 H   0  0  0  0  0  0  0  0  0  0  0  0
   -6.7388   16.9353  -11.2554 C   0  0  0  0  0  0  0  0  0  0  0  0
   -7.0689   16.1215  -12.3442 C   0  0  0  0  0  0  0  0  0  0  0  0
   -6.6083   14.8229  -12.3941 C   0  0  0  0  0  0  0  0  0  0  0  0
   -5.8218   14.3238  -11.3704 C   0  0  0  0  0  0  0  0  0  0  0  0
   -5.4904   15.1228  -10.2899 C   0  0  0  0  0  0  0  0  0  0  0  0
   -5.9386   16.4252  -10.2277 C   0  0  0  0  0  0  0  0  0  0  0  0
   -5.3320   12.9283  -11.4317 N   0  0  0  0  0  0  0  0  0  0  0  0
   -5.6755   12.1244  -10.5836 O   0  0  0  0  0  0  0  0  0  0  0  0
   -4.5856   12.5839  -12.3305 O   0  0  0  0  0  0  0  0  0  0  0  0
  -10.8261   21.9801   -5.9845 C   0  0  0  0  0  0  0  0  0  0  0  0
   -9.3772   21.5849   -6.2771 C   0  0  0  0  0  0  0  0  0  0  0  0
 22 23  1  0  0  0
 23  1  1  0  0  0
  1  2  2  0  0  0
  2  9  1  0  0  0
  2  3  1  0  0  0
  3  4  1  0  0  0
  4  5  2  0  0  0
  4  6  1  0  0  0
  6  7  2  0  0  0
  6  8  1  0  0  0
  7 13  1  0  0  0
 13 18  1  0  0  0
 13 14  2  0  0  0
 14 15  1  0  0  0
 15 16  2  0  0  0
 16 19  1  0  0  0
 16 17  1  0  0  0
 19 20  1  0  0  0
 19 21  2  0  0  0
 17 18  2  0  0  0
  8  9  1  0  0  0
  9 10  2  0  0  0
  3 11  1  0  0  0
  8 12  1  0  0  0
M  CHG 1  19   1
M  CHG 1  20  -1
M  END
> <minimizedAffinity>
-7.94456

$$$$
ZINC000033418272


 22 24  0  0  0  0  0  0  0  0999 V2000
   -5.3141   16.2809  -11.5257 C   0  0  0  0  0  0  0  0  0  0  0  0
   -6.1474   15.2471  -10.8130 C   0  0  0  0  0  0  0  0  0  0  0  0
   -6.1267   13.9595  -11.2012 C   0  0  0  0  0  0  0  0  0  0  0  0
   -7.2354   13.1192  -10.1022 S   0  0  0  0  0  0  0  0  0  0  0  0
   -7.6505   14.5788   -9.1901 C   0  0  0  0  0  0  0  0  0  0  0  0
   -8.3670   15.0429   -8.1962 N   0  0  0  0  0  0  0  0  0  0  0  0
   -8.1515   16.3694   -8.0818 C   0  0  0  0  0  0  0  0  0  0  0  0
   -7.2696   16.7381   -9.0404 C   0  0  0  0  0  0  0  0  0  0  0  0
   -6.9346   15.5938   -9.7573 N   0  0  0  0  0  0  0  0  0  0  0  0
   -8.7730   17.2687   -7.0790 C   0  0  0  0  0  0  0  0  0  0  0  0
   -8.3456   18.5901   -6.9645 C   0  0  0  0  0  0  0  0  0  0  0  0
   -8.9278   19.4225   -6.0299 C   0  0  0  0  0  0  0  0  0  0  0  0
   -9.9333   18.9472   -5.2078 C   0  0  0  0  0  0  0  0  0  0  0  0
  -10.3614   17.6360   -5.3167 C   0  0  0  0  0  0  0  0  0  0  0  0
   -9.7908   16.7968   -6.2517 C   0  0  0  0  0  0  0  0  0  0  0  0
  -11.4380   17.1346   -4.4334 N   0  0  0  0  0  0  0  0  0  0  0  0
  -11.3559   16.0223   -3.9441 O   0  0  0  0  0  0  0  0  0  0  0  0
  -12.4063   17.8344   -4.1958 O   0  0  0  0  0  0  0  0  0  0  0  0
   -5.3529   13.3759  -12.2979 C   0  0  0  0  0  0  0  0  0  0  0  0
   -5.6381   13.6430  -13.4585 O   0  0  0  0  0  0  0  0  0  0  0  0
   -4.4201   12.6206  -12.0550 O   0  0  0  0  0  0  0  0  0  0  0  0
   -7.1733   14.7988  -11.3028 H   0  0  0  0  0  0  0  0  0  0  0  0
  1  2  1  0  0  0
  2  9  1  0  0  0
  2  3  2  0  0  0
  3 19  1  0  0  0
  3  4  1  0  0  0
 19 20  2  0  0  0
 19 21  1  0  0  0
  4  5  1  0  0  0
  5  9  1  0  0  0
  5  6  2  0  0  0
  6  7  1  0  0  0
  7 10  1  0  0  0
  7  8  2  0  0  0
 10 15  1  0  0  0
 10 11  2  0  0  0
 11 12  1  0  0  0
 12 13  2  0  0  0
 13 14  1  0  0  0
 14 16  1  0  0  0
 14 15  2  0  0  0
 16 17  1  0  0  0
 16 18  2  0  0  0
  8  9  1  0  0  0
 21 22  1  0  0  0
M  CHG 1  16   1
M  CHG 1  17  -1
M  END
> <minimizedAffinity>
-7.85397

$$$$
ZINC000575425431


 22 23  0  0  0  0  0  0  0  0999 V2000
   -6.0779   17.1233  -10.8476 N   0  0  0  0  0  0  0  0  0  0  0  0
   -8.6102   18.5394   -6.5172 H   0  0  0  0  0  0  0  0  0  0  0  0
   -8.4082   17.7195   -7.8638 C   0  0  0  0  0  0  0  0  0  0  0  0
   -8.3541   18.7932   -8.7184 C   0  0  0  0  0  0  0  0  0  0  0  0
   -9.1335   20.0631   -8.4924 C   0  0  0  0  0  0  0  0  0  0  0  0
   -7.5658   18.6147   -9.7443 N   0  0  0  0  0  0  0  0  0  0  0  0
   -6.9444   17.4726   -9.8303 C   0  0  0  0  0  0  0  0  0  0  0  0
   -7.3452   16.4695   -8.5059 S   0  0  0  0  0  0  0  0  0  0  0  0
   -8.7225   18.3625   -5.4420 C   0  0  0  0  0  0  0  0  0  0  0  0
   -9.1715   17.6351   -6.6831 C   0  0  0  0  0  0  0  0  0  0  0  0
  -10.1919   16.9758   -6.6652 O   0  0  0  0  0  0  0  0  0  0  0  0
   -6.5613   16.8018  -12.0640 C   0  0  0  0  0  0  0  0  0  0  0  0
   -6.4118   17.9060  -13.3636 S   0  0  0  0  0  0  0  0  0  0  0  0
   -7.1623   15.6111  -12.2570 N   0  0  0  0  0  0  0  0  0  0  0  0
   -5.1126   22.7549  -12.7314 H   0  0  0  0  0  0  0  0  0  0  0  0
   -6.7850   14.4583  -11.4355 C   0  0  0  0  0  0  0  0  0  0  0  0
   -5.6225   13.6976  -12.0971 C   0  0  0  0  0  0  0  0  0  0  0  0
   -5.4745   12.3257  -11.4096 C   0  0  0  0  0  0  0  0  0  0  0  0
   -7.1493   11.9163  -10.7985 S   0  0  0  0  0  0  0  0  0  0  0  0
   -7.6676   10.8221  -11.5423 O   0  0  0  0  0  0  0  0  0  0  0  0
   -7.1323   11.8622   -9.3787 O   0  0  0  0  0  0  0  0  0  0  0  0
   -7.9703   13.4633  -11.3402 C   0  0  0  0  0  0  0  0  0  0  0  0
  9 10  1  0  0  0
 10 11  2  0  0  0
 10  3  1  0  0  0
  3  8  1  0  0  0
  3  4  2  0  0  0
  4  5  1  0  0  0
  4  6  1  0  0  0
  6  7  2  0  0  0
  7  1  1  0  0  0
  7  8  1  0  0  0
  1 12  1  0  0  0
 12 13  2  0  0  0
 12 14  1  0  0  0
 14 16  1  0  0  0
 16 22  1  0  0  0
 16 17  1  0  0  0
 17 18  1  0  0  0
 18 19  1  0  0  0
 19 20  2  0  0  0
 19 21  2  0  0  0
 19 22  1  0  0  0
  1  2  1  0  0  0
 14 15  1  0  0  0
M  END
> <minimizedAffinity>
-6.66891

$$$$
ZINC000952844774


 25 28  0  0  0  0  0  0  0  0999 V2000
   -7.2148   14.6248   -9.4399 C   0  0  0  0  0  0  0  0  0  0  0  0
   -5.9839   13.7955   -9.0388 C   0  0  0  0  0  0  0  0  0  0  0  0
   -6.3113   12.3077   -9.3062 C   0  0  0  0  0  0  0  0  0  0  0  0
   -5.8856   12.0719  -10.6604 O   0  0  0  0  0  0  0  0  0  0  0  0
   -5.3879   13.3237  -11.1677 C   0  0  0  0  0  0  0  0  0  0  0  0
   -4.9404   14.0857  -10.0019 O   0  0  0  0  0  0  0  0  0  0  0  0
   -6.5591   14.0801  -11.8135 C   0  0  0  0  0  0  0  0  0  0  0  0
   -7.7171   14.1318  -10.8017 C   0  0  0  0  0  0  0  0  0  0  0  0
   -8.2475   12.8179  -10.6162 O   0  0  0  0  0  0  0  0  0  0  0  0
   -5.5008   18.4937   -6.3688 H   0  0  0  0  0  0  0  0  0  0  0  0
   -6.1460   15.4506  -12.1256 N   0  0  0  0  0  0  0  0  0  0  0  0
   -6.9117   16.4233  -12.6495 C   0  0  0  0  0  0  0  0  0  0  0  0
   -6.1746   17.4969  -12.7751 N   0  0  0  0  0  0  0  0  0  0  0  0
   -4.9385   17.2493  -12.3440 C   0  0  0  0  0  0  0  0  0  0  0  0
   -4.8729   16.0109  -11.9313 N   0  0  0  0  0  0  0  0  0  0  0  0
   -6.8445   16.0433   -9.5346 N   0  0  0  0  0  0  0  0  0  0  0  0
   -8.3591   19.1874   -7.1570 H   0  0  0  0  0  0  0  0  0  0  0  0
   -9.3730   20.2558   -6.7561 C   0  0  0  0  0  0  0  0  0  0  0  0
   -8.4606   19.3232   -7.4311 N   0  0  0  0  0  0  0  0  0  0  0  0
   -8.8638   19.1765   -8.8349 C   0  0  0  0  0  0  0  0  0  0  0  0
   -7.8693   18.2696   -9.5629 C   0  0  0  0  0  0  0  0  0  0  0  0
   -7.8522   16.8947   -8.8886 C   0  0  0  0  0  0  0  0  0  0  0  0
   -7.5031   17.0678   -7.4076 C   0  0  0  0  0  0  0  0  0  0  0  0
   -8.5125   18.0187   -6.7604 C   0  0  0  0  0  0  0  0  0  0  0  0
   -8.3710   19.0363   -6.9765 H   0  0  0  0  0  0  0  0  0  0  0  0
 18 19  1  0  0  0
 19 24  1  0  0  0
 19 20  1  0  0  0
 20 21  1  0  0  0
 21 22  1  0  0  0
 22 16  1  0  0  0
 22 23  1  0  0  0
 16  1  1  0  0  0
  1  8  1  0  0  0
  1  2  1  0  0  0
  2  6  1  0  0  0
  2  3  1  0  0  0
  3  4  1  0  0  0
  4  5  1  0  0  0
  5  6  1  0  0  0
  5  7  1  0  0  0
  7 11  1  0  0  0
  7  8  1  0  0  0
 11 15  1  0  0  0
 11 12  1  0  0  0
 12 13  2  0  0  0
 13 14  1  0  0  0
 14 15  2  0  0  0
  8  9  1  0  0  0
 23 24  1  0  0  0
 19 25  1  0  0  0
 16 17  1  0  0  0
  9 10  1  0  0  0
M  CHG 1  19   1
M  END
> <minimizedAffinity>
-6.95370

$$$$
ZINC000004599946


 31 32  0  0  0  0  0  0  0  0999 V2000
   -7.1668   15.5028   -8.9053 C   0  0  0  0  0  0  0  0  0  0  0  0
   -6.5739   16.6955   -9.1965 C   0  0  0  0  0  0  0  0  0  0  0  0
   -6.2227   17.5382   -8.1978 O   0  0  0  0  0  0  0  0  0  0  0  0
  -11.3376   11.8241   -2.2205 H   0  0  0  0  0  0  0  0  0  0  0  0
   -7.4153   14.5755   -9.9268 N   0  0  0  0  0  0  0  0  0  0  0  0
   -8.5383   14.6930  -10.6815 C   0  0  0  0  0  0  0  0  0  0  0  0
   -8.7997   13.8093  -11.6737 C   0  0  0  0  0  0  0  0  0  0  0  0
   -7.9059   12.7609  -11.9297 C   0  0  0  0  0  0  0  0  0  0  0  0
   -6.7777   12.6454  -11.1702 C   0  0  0  0  0  0  0  0  0  0  0  0
   -6.5352   13.5818  -10.1524 C   0  0  0  0  0  0  0  0  0  0  0  0
   -5.5295   13.4900   -9.4659 O   0  0  0  0  0  0  0  0  0  0  0  0
   -6.3154   17.0670  -10.6002 C   0  0  0  0  0  0  0  0  0  0  0  0
   -5.3425   16.3884  -11.3384 C   0  0  0  0  0  0  0  0  0  0  0  0
   -5.1063   16.7415  -12.6506 C   0  0  0  0  0  0  0  0  0  0  0  0
   -5.8299   17.7654  -13.2361 C   0  0  0  0  0  0  0  0  0  0  0  0
   -6.7953   18.4421  -12.5111 C   0  0  0  0  0  0  0  0  0  0  0  0
   -7.0467   18.0960  -11.2002 C   0  0  0  0  0  0  0  0  0  0  0  0
   -7.5641   19.5360  -13.1463 N   0  0  0  0  0  0  0  0  0  0  0  0
   -7.5597   19.6594  -14.3580 O   0  0  0  0  0  0  0  0  0  0  0  0
   -8.2010   20.3125  -12.4573 O   0  0  0  0  0  0  0  0  0  0  0  0
   -8.7172   15.6321   -7.0342 N   0  0  0  0  0  0  0  0  0  0  0  0
   -7.5433   15.1911   -7.5281 C   0  0  0  0  0  0  0  0  0  0  0  0
   -6.7965   14.5329   -6.8268 O   0  0  0  0  0  0  0  0  0  0  0  0
  -10.8784   16.2996   -1.0820 H   0  0  0  0  0  0  0  0  0  0  0  0
   -9.1428   15.2328   -5.6904 C   0  0  0  0  0  0  0  0  0  0  0  0
   -9.6322   16.4632   -4.9238 C   0  0  0  0  0  0  0  0  0  0  0  0
   -8.8279   17.6894   -5.3603 C   0  0  0  0  0  0  0  0  0  0  0  0
   -9.6991   18.6310   -5.9898 O   0  0  0  0  0  0  0  0  0  0  0  0
   -9.3291   19.0833   -8.3349 C   0  0  0  0  0  0  0  0  0  0  0  0
   -9.0395   19.5170   -6.8965 C   0  0  0  0  0  0  0  0  0  0  0  0
   -9.5522   20.9422   -6.6806 C   0  0  0  0  0  0  0  0  0  0  0  0
 29 30  1  0  0  0
 30 31  1  0  0  0
 30 28  1  0  0  0
 28 27  1  0  0  0
 27 26  1  0  0  0
 26 25  1  0  0  0
 25 21  1  0  0  0
 21 22  1  0  0  0
 22 23  2  0  0  0
 22  1  1  0  0  0
  1  2  2  0  0  0
  1  5  1  0  0  0
  2  3  1  0  0  0
  2 12  1  0  0  0
 12 17  1  0  0  0
 12 13  2  0  0  0
 13 14  1  0  0  0
 14 15  2  0  0  0
 15 16  1  0  0  0
 16 18  1  0  0  0
 16 17  2  0  0  0
 18 19  1  0  0  0
 18 20  2  0  0  0
  5 10  1  0  0  0
  5  6  1  0  0  0
  6  7  2  0  0  0
  7  8  1  0  0  0
  8  9  2  0  0  0
  9 10  1  0  0  0
 10 11  2  0  0  0
 21 24  1  0  0  0
  3  4  1  0  0  0
M  CHG 1  18   1
M  CHG 1  19  -1
M  END
> <minimizedAffinity>
-7.47054

$$$$
ZINC000005018098


 23 24  0  0  0  0  0  0  0  0999 V2000
   -8.9773   14.0517   -8.6042 O   0  0  0  0  0  0  0  0  0  0  0  0
   -7.8171   14.4040   -8.6870 C   0  0  0  0  0  0  0  0  0  0  0  0
   -7.2883   15.2087   -7.7440 N   0  0  0  0  0  0  0  0  0  0  0  0
   -9.2594   13.9775   -8.6944 H   0  0  0  0  0  0  0  0  0  0  0  0
   -6.9828   13.9441   -9.8210 C   0  0  0  0  0  0  0  0  0  0  0  0
   -6.5913   12.7048   -9.8800 N   0  0  0  0  0  0  0  0  0  0  0  0
   -7.0532   11.7700   -8.9219 O   0  0  0  0  0  0  0  0  0  0  0  0
   -8.1189   13.3907   -7.6173 H   0  0  0  0  0  0  0  0  0  0  0  0
   -6.5940   14.8956  -10.8886 C   0  0  0  0  0  0  0  0  0  0  0  0
   -5.2931   15.3937  -10.9304 C   0  0  0  0  0  0  0  0  0  0  0  0
   -4.9447   16.2816  -11.9340 C   0  0  0  0  0  0  0  0  0  0  0  0
   -5.9094   16.6424  -12.8632 C   0  0  0  0  0  0  0  0  0  0  0  0
   -7.1823   16.1092  -12.7619 C   0  0  0  0  0  0  0  0  0  0  0  0
   -7.4862   15.2625  -11.8004 N   0  0  0  0  0  0  0  0  0  0  0  0
   -8.1405   15.7538   -6.6844 C   0  0  0  0  0  0  0  0  0  0  0  0
   -8.0130   17.2783   -6.6610 C   0  0  0  0  0  0  0  0  0  0  0  0
   -8.2383   17.8094   -8.0120 N   0  0  0  0  0  0  0  0  0  0  0  0
   -6.9510   18.1822   -8.6105 C   0  0  0  0  0  0  0  0  0  0  0  0
   -7.1716   18.6603  -10.0472 C   0  0  0  0  0  0  0  0  0  0  0  0
   -8.1030   19.8759  -10.0376 C   0  0  0  0  0  0  0  0  0  0  0  0
   -9.4147   19.4961   -9.3444 C   0  0  0  0  0  0  0  0  0  0  0  0
   -9.1095   18.9881   -7.9336 C   0  0  0  0  0  0  0  0  0  0  0  0
  -11.5604   15.7244   -4.5336 H   0  0  0  0  0  0  0  0  0  0  0  0
  1  2  2  0  0  0
  2  3  1  0  0  0
  2  5  1  0  0  0
  3 15  1  0  0  0
 15 16  1  0  0  0
 16 17  1  0  0  0
 17 22  1  0  0  0
 17 18  1  0  0  0
 18 19  1  0  0  0
 19 20  1  0  0  0
 20 21  1  0  0  0
 21 22  1  0  0  0
  5  6  2  0  0  0
  5  9  1  0  0  0
  6  7  1  0  0  0
  9 14  1  0  0  0
  9 10  2  0  0  0
 10 11  1  0  0  0
 11 12  2  0  0  0
 12 13  1  0  0  0
 13 14  2  0  0  0
  3  4  1  0  0  0
 17 23  1  0  0  0
  7  8  1  0  0  0
M  CHG 1  17   1
M  END
> <minimizedAffinity>
-6.73169

$$$$
ZINC000071908972


 23 24  0  0  0  0  0  0  0  0999 V2000
   -7.5265   17.0977   -9.8331 C   0  0  0  0  0  0  0  0  0  0  0  0
   -6.9569   17.1793  -11.0250 N   0  0  0  0  0  0  0  0  0  0  0  0
   -7.0089   18.2829  -11.7458 C   0  0  0  0  0  0  0  0  0  0  0  0
   -7.6653   19.4097  -11.2852 C   0  0  0  0  0  0  0  0  0  0  0  0
   -8.2794   19.3816  -10.0450 C   0  0  0  0  0  0  0  0  0  0  0  0
   -8.2169   18.1997   -9.2988 C   0  0  0  0  0  0  0  0  0  0  0  0
   -6.3412   18.3163  -13.0964 C   0  0  0  0  0  0  0  0  0  0  0  0
   -4.9556   18.4136  -12.9293 F   0  0  0  0  0  0  0  0  0  0  0  0
   -6.6454   17.1436  -13.7961 F   0  0  0  0  0  0  0  0  0  0  0  0
   -6.8028   19.4227  -13.8175 F   0  0  0  0  0  0  0  0  0  0  0  0
   -7.4469   15.9195   -9.1114 N   0  0  0  0  0  0  0  0  0  0  0  0
   -9.3960   14.6063   -6.8826 H   0  0  0  0  0  0  0  0  0  0  0  0
   -8.2845   14.7759   -9.4811 C   0  0  0  0  0  0  0  0  0  0  0  0
   -7.3805   13.4931  -11.4458 C   0  0  0  0  0  0  0  0  0  0  0  0
   -6.6236   12.5425  -11.9677 N   0  0  0  0  0  0  0  0  0  0  0  0
   -5.8887   11.7492  -11.2114 C   0  0  0  0  0  0  0  0  0  0  0  0
   -5.8847   11.8855   -9.8376 C   0  0  0  0  0  0  0  0  0  0  0  0
   -6.6658   12.8716   -9.2507 C   0  0  0  0  0  0  0  0  0  0  0  0
   -7.4212   13.6908  -10.0713 C   0  0  0  0  0  0  0  0  0  0  0  0
   -9.2857   13.7055  -12.8488 C   0  0  0  0  0  0  0  0  0  0  0  0
   -8.1200   14.2866  -12.2608 O   0  0  0  0  0  0  0  0  0  0  0  0
   -8.8359   18.1173   -8.0100 C   0  0  0  0  0  0  0  0  0  0  0  0
   -9.3269   18.0519   -6.9877 N   0  0  0  0  0  0  0  0  0  0  0  0
 20 21  1  0  0  0
 21 14  1  0  0  0
 14 19  2  0  0  0
 14 15  1  0  0  0
 15 16  2  0  0  0
 16 17  1  0  0  0
 17 18  2  0  0  0
 18 19  1  0  0  0
 19 13  1  0  0  0
 13 11  1  0  0  0
 11  1  1  0  0  0
  1  6  1  0  0  0
  1  2  2  0  0  0
  2  3  1  0  0  0
  3  7  1  0  0  0
  3  4  2  0  0  0
  7  8  1  0  0  0
  7  9  1  0  0  0
  7 10  1  0  0  0
  4  5  1  0  0  0
  5  6  2  0  0  0
  6 22  1  0  0  0
 22 23  3  0  0  0
 11 12  1  0  0  0
M  END
> <minimizedAffinity>
-7.20620

$$$$
ZINC000257325190


 23 25  0  0  0  0  0  0  0  0999 V2000
   -8.0610   17.0616   -7.6772 C   0  0  0  0  0  0  0  0  0  0  0  0
   -7.8255   16.4581   -6.2911 C   0  0  0  0  0  0  0  0  0  0  0  0
   -9.1173   16.2387   -8.4184 C   0  0  0  0  0  0  0  0  0  0  0  0
   -8.6397   14.7878   -8.5346 C   0  0  0  0  0  0  0  0  0  0  0  0
   -7.3130   14.7759   -9.1659 N   0  0  0  0  0  0  0  0  0  0  0  0
   -7.0783   14.0196  -10.2566 C   0  0  0  0  0  0  0  0  0  0  0  0
   -7.9666   13.3403  -10.7261 O   0  0  0  0  0  0  0  0  0  0  0  0
   -6.2471   15.6044   -8.5861 C   0  0  0  0  0  0  0  0  0  0  0  0
   -6.7517   17.0462   -8.4693 C   0  0  0  0  0  0  0  0  0  0  0  0
   -9.8363   21.9985   -6.2677 C   0  0  0  0  0  0  0  0  0  0  0  0
   -9.3469   20.7207   -6.8992 C   0  0  0  0  0  0  0  0  0  0  0  0
   -9.1347   20.5192   -8.2031 C   0  0  0  0  0  0  0  0  0  0  0  0
   -8.7050   19.3109   -8.5066 N   0  0  0  0  0  0  0  0  0  0  0  0
   -8.5428   18.4821   -7.5311 C   0  0  0  0  0  0  0  0  0  0  0  0
   -8.9463   19.2310   -6.0480 S   0  0  0  0  0  0  0  0  0  0  0  0
   -5.7122   14.0182  -10.8927 C   0  0  0  0  0  0  0  0  0  0  0  0
   -5.8422   14.3491  -12.3808 C   0  0  0  0  0  0  0  0  0  0  0  0
   -5.7897   15.8016  -12.5646 N   0  0  0  0  0  0  0  0  0  0  0  0
   -4.9080   16.6437  -11.9861 C   0  0  0  0  0  0  0  0  0  0  0  0
   -5.1941   17.8960  -12.4111 C   0  0  0  0  0  0  0  0  0  0  0  0
   -6.2880   17.8167  -13.2791 C   0  0  0  0  0  0  0  0  0  0  0  0
   -6.9416   18.9764  -13.9854 C   0  0  0  0  0  0  0  0  0  0  0  0
   -6.6421   16.5609  -13.3765 N   0  0  0  0  0  0  0  0  0  0  0  0
 10 11  1  0  0  0
 11 15  1  0  0  0
 11 12  2  0  0  0
 12 13  1  0  0  0
 13 14  2  0  0  0
 14  1  1  0  0  0
 14 15  1  0  0  0
  1  9  1  0  0  0
  1  2  1  0  0  0
  1  3  1  0  0  0
  3  4  1  0  0  0
  4  5  1  0  0  0
  5  6  1  0  0  0
  5  8  1  0  0  0
  6  7  2  0  0  0
  6 16  1  0  0  0
 16 17  1  0  0  0
 17 18  1  0  0  0
 18 23  1  0  0  0
 18 19  1  0  0  0
 19 20  2  0  0  0
 20 21  1  0  0  0
 21 22  1  0  0  0
 21 23  2  0  0  0
  8  9  1  0  0  0
M  END
> <minimizedAffinity>
-7.19606

$$$$
ZINC000097163946


 23 24  0  0  0  0  0  0  0  0999 V2000
   -7.4624   15.7160  -10.5575 N   0  0  0  0  0  0  0  0  0  0  0  0
   -7.0339   15.8606   -9.2879 C   0  0  0  0  0  0  0  0  0  0  0  0
   -5.8767   15.6161   -9.0052 O   0  0  0  0  0  0  0  0  0  0  0  0
   -8.3590   15.6533  -13.2256 H   0  0  0  0  0  0  0  0  0  0  0  0
   -7.9687   16.3152   -8.2412 C   0  0  0  0  0  0  0  0  0  0  0  0
   -7.9944   17.6580   -7.8575 C   0  0  0  0  0  0  0  0  0  0  0  0
   -8.8701   18.0763   -6.8788 C   0  0  0  0  0  0  0  0  0  0  0  0
   -9.7253   17.1711   -6.2728 C   0  0  0  0  0  0  0  0  0  0  0  0
   -9.7103   15.8405   -6.6427 C   0  0  0  0  0  0  0  0  0  0  0  0
   -8.8403   15.4032   -7.6298 C   0  0  0  0  0  0  0  0  0  0  0  0
   -8.8247   14.0966   -7.9945 O   0  0  0  0  0  0  0  0  0  0  0  0
   -4.3236   18.5780  -10.8922 H   0  0  0  0  0  0  0  0  0  0  0  0
  -10.6613   17.6324   -5.2231 N   0  0  0  0  0  0  0  0  0  0  0  0
  -11.6914   17.0174   -5.0125 O   0  0  0  0  0  0  0  0  0  0  0  0
  -10.4015   18.6270   -4.5699 O   0  0  0  0  0  0  0  0  0  0  0  0
   -6.5012   13.8091  -11.9318 C   0  0  0  0  0  0  0  0  0  0  0  0
   -5.5842   13.7715  -12.8548 N   0  0  0  0  0  0  0  0  0  0  0  0
   -5.1208   14.8669  -13.0711 O   0  0  0  0  0  0  0  0  0  0  0  0
   -5.6869   15.8058  -12.2958 C   0  0  0  0  0  0  0  0  0  0  0  0
   -5.3685   17.2787  -12.2827 C   0  0  0  0  0  0  0  0  0  0  0  0
   -6.6083   15.1649  -11.5296 C   0  0  0  0  0  0  0  0  0  0  0  0
   -6.6789   12.1626  -10.0861 C   0  0  0  0  0  0  0  0  0  0  0  0
   -7.2961   12.6442  -11.4006 C   0  0  0  0  0  0  0  0  0  0  0  0
 22 23  1  0  0  0
 23 16  1  0  0  0
 16 21  1  0  0  0
 16 17  2  0  0  0
 17 18  1  0  0  0
 18 19  1  0  0  0
 19 20  1  0  0  0
 19 21  2  0  0  0
 21  1  1  0  0  0
  1  2  1  0  0  0
  2  3  2  0  0  0
  2  5  1  0  0  0
  5 10  1  0  0  0
  5  6  2  0  0  0
  6  7  1  0  0  0
  7  8  2  0  0  0
  8 13  1  0  0  0
  8  9  1  0  0  0
 13 14  1  0  0  0
 13 15  2  0  0  0
  9 10  2  0  0  0
 10 11  1  0  0  0
  1  4  1  0  0  0
 11 12  1  0  0  0
M  CHG 1  13   1
M  CHG 1  14  -1
M  END
> <minimizedAffinity>
-7.31992

$$$$
ZINC000008777097


 18 18  0  0  0  0  0  0  0  0999 V2000
   -7.6123   15.8202   -9.5009 C   0  0  0  0  0  0  0  0  0  0  0  0
   -6.9379   16.5835  -10.3873 C   0  0  0  0  0  0  0  0  0  0  0  0
   -6.4283   16.0137  -11.5223 N   0  0  0  0  0  0  0  0  0  0  0  0
   -5.6966   16.8417  -12.4842 C   0  0  0  0  0  0  0  0  0  0  0  0
   -6.5925   14.7002  -11.7629 C   0  0  0  0  0  0  0  0  0  0  0  0
   -6.1311   14.2145  -12.7774 O   0  0  0  0  0  0  0  0  0  0  0  0
   -7.2601   13.9163  -10.8960 N   0  0  0  0  0  0  0  0  0  0  0  0
   -7.4242   12.4886  -11.1808 C   0  0  0  0  0  0  0  0  0  0  0  0
   -7.7731   14.4385   -9.7637 C   0  0  0  0  0  0  0  0  0  0  0  0
   -8.3769   13.7298   -8.9786 O   0  0  0  0  0  0  0  0  0  0  0  0
   -8.2769   16.5331   -8.0329 S   0  0  0  0  0  0  0  0  0  0  0  0
   -7.5006   16.0286   -6.9549 O   0  0  0  0  0  0  0  0  0  0  0  0
   -9.6871   16.3782   -8.1144 O   0  0  0  0  0  0  0  0  0  0  0  0
   -7.9807   18.1610   -8.1009 N   0  0  0  0  0  0  0  0  0  0  0  0
   -8.5344   20.4592   -8.4904 H   0  0  0  0  0  0  0  0  0  0  0  0
   -9.0424   19.0822   -8.5134 C   0  0  0  0  0  0  0  0  0  0  0  0
   -8.5276   19.9889  -10.9453 C   0  0  0  0  0  0  0  0  0  0  0  0
   -8.7561   19.5866   -9.8664 C   0  0  0  0  0  0  0  0  0  0  0  0
 17 18  3  0  0  0
 18 16  1  0  0  0
 16 14  1  0  0  0
 14 11  1  0  0  0
 11 12  2  0  0  0
 11 13  2  0  0  0
 11  1  1  0  0  0
  1  9  1  0  0  0
  1  2  2  0  0  0
  2  3  1  0  0  0
  3  4  1  0  0  0
  3  5  1  0  0  0
  5  6  2  0  0  0
  5  7  1  0  0  0
  7  8  1  0  0  0
  7  9  1  0  0  0
  9 10  2  0  0  0
 14 15  1  0  0  0
M  END
> <minimizedAffinity>
-5.83903

$$$$
ZINC000015672084


 32 34  0  0  0  0  0  0  0  0999 V2000
   -7.6892   18.5142  -10.0328 C   0  0  0  0  0  0  0  0  0  0  0  0
   -6.5209   17.5576   -9.7313 C   0  0  0  0  0  0  0  0  0  0  0  0
   -6.5567   16.4813  -10.6918 N   0  0  0  0  0  0  0  0  0  0  0  0
   -5.6733   16.6976  -11.8587 C   0  0  0  0  0  0  0  0  0  0  0  0
   -5.7114   18.1405  -12.3929 C   0  0  0  0  0  0  0  0  0  0  0  0
   -7.1033   18.7120  -12.4407 C   0  0  0  0  0  0  0  0  0  0  0  0
   -7.3846   19.4480  -11.1113 C   0  0  0  0  0  0  0  0  0  0  0  0
   -8.4980   20.3256  -11.2910 O   0  0  0  0  0  0  0  0  0  0  0  0
  -11.0512   21.9315   -1.1421 H   0  0  0  0  0  0  0  0  0  0  0  0
   -8.9070   18.8033   -7.9421 C   0  0  0  0  0  0  0  0  0  0  0  0
   -9.4648   17.7441   -8.1547 O   0  0  0  0  0  0  0  0  0  0  0  0
   -8.0015   19.2764   -8.8211 N   0  0  0  0  0  0  0  0  0  0  0  0
  -11.2525   22.0464   -1.2662 H   0  0  0  0  0  0  0  0  0  0  0  0
   -9.8114   21.0126   -4.4300 C   0  0  0  0  0  0  0  0  0  0  0  0
   -9.7319   21.6623   -5.6562 C   0  0  0  0  0  0  0  0  0  0  0  0
   -9.4392   20.9493   -6.7974 C   0  0  0  0  0  0  0  0  0  0  0  0
   -9.2215   19.5712   -6.7214 C   0  0  0  0  0  0  0  0  0  0  0  0
   -9.3019   18.9219   -5.4867 C   0  0  0  0  0  0  0  0  0  0  0  0
   -9.5904   19.6427   -4.3494 C   0  0  0  0  0  0  0  0  0  0  0  0
  -10.1002   21.7188   -3.3076 O   0  0  0  0  0  0  0  0  0  0  0  0
   -9.1721   22.7354   -2.9240 C   0  0  0  0  0  0  0  0  0  0  0  0
   -7.4300   21.7347   -1.2020 C   0  0  0  0  0  0  0  0  0  0  0  0
   -8.2029   22.1787   -1.9660 C   0  0  0  0  0  0  0  0  0  0  0  0
   -6.2725   15.1917  -10.0482 C   0  0  0  0  0  0  0  0  0  0  0  0
   -6.9479   14.0863  -10.8184 C   0  0  0  0  0  0  0  0  0  0  0  0
   -8.1179   14.3408  -11.5092 C   0  0  0  0  0  0  0  0  0  0  0  0
   -8.7400   13.3286  -12.2169 C   0  0  0  0  0  0  0  0  0  0  0  0
   -8.1935   12.0603  -12.2351 C   0  0  0  0  0  0  0  0  0  0  0  0
   -7.0191   11.8022  -11.5425 C   0  0  0  0  0  0  0  0  0  0  0  0
   -6.3940   12.8206  -10.8380 C   0  0  0  0  0  0  0  0  0  0  0  0
   -6.4792   10.5552  -11.5592 O   0  0  0  0  0  0  0  0  0  0  0  0
   -5.1480   10.4177  -11.0584 C   0  0  0  0  0  0  0  0  0  0  0  0
 22 23  3  0  0  0
 23 21  1  0  0  0
 21 20  1  0  0  0
 20 14  1  0  0  0
 14 19  2  0  0  0
 14 15  1  0  0  0
 15 16  2  0  0  0
 16 17  1  0  0  0
 17 10  1  0  0  0
 17 18  2  0  0  0
 10 11  2  0  0  0
 10 12  1  0  0  0
 12  1  1  0  0  0
  1  7  1  0  0  0
  1  2  1  0  0  0
  2  3  1  0  0  0
  3 24  1  0  0  0
  3  4  1  0  0  0
 24 25  1  0  0  0
 25 30  1  0  0  0
 25 26  2  0  0  0
 26 27  1  0  0  0
 27 28  2  0  0  0
 28 29  1  0  0  0
 29 31  1  0  0  0
 29 30  2  0  0  0
 31 32  1  0  0  0
  4  5  1  0  0  0
  5  6  1  0  0  0
  6  7  1  0  0  0
  7  8  1  0  0  0
 18 19  1  0  0  0
 12 13  1  0  0  0
  8  9  1  0  0  0
M  END
> <minimizedAffinity>
-7.94153

$$$$
ZINC000055231971


 31 34  0  0  0  0  0  0  0  0999 V2000
   -7.2882   13.1537  -11.0998 N   0  0  0  0  0  0  0  0  0  0  0  0
   -6.1602   12.4656  -11.3317 C   0  0  0  0  0  0  0  0  0  0  0  0
   -6.2328   11.3591  -11.8280 O   0  0  0  0  0  0  0  0  0  0  0  0
   -4.9538   12.9689  -11.0297 N   0  0  0  0  0  0  0  0  0  0  0  0
   -4.8095   14.1832  -10.4804 C   0  0  0  0  0  0  0  0  0  0  0  0
   -3.6943   14.5877  -10.2305 O   0  0  0  0  0  0  0  0  0  0  0  0
   -5.9900   15.0571  -10.1660 C   0  0  0  0  0  0  0  0  0  0  0  0
   -6.0091   15.3734   -8.6679 C   0  0  0  0  0  0  0  0  0  0  0  0
   -6.9640   16.5079   -8.3953 C   0  0  0  0  0  0  0  0  0  0  0  0
   -7.3636   16.7253   -7.0864 C   0  0  0  0  0  0  0  0  0  0  0  0
   -8.2311   17.7551   -6.7801 C   0  0  0  0  0  0  0  0  0  0  0  0
   -8.7060   18.5782   -7.7844 C   0  0  0  0  0  0  0  0  0  0  0  0
   -8.3157   18.3666   -9.0895 C   0  0  0  0  0  0  0  0  0  0  0  0
   -7.4426   17.3251   -9.4060 C   0  0  0  0  0  0  0  0  0  0  0  0
   -7.0988   17.1471  -10.7425 N   0  0  0  0  0  0  0  0  0  0  0  0
   -7.0433   18.4204  -11.4714 C   0  0  0  0  0  0  0  0  0  0  0  0
   -6.8181   18.1364  -12.9591 C   0  0  0  0  0  0  0  0  0  0  0  0
   -5.5677   17.3867  -13.1348 N   0  0  0  0  0  0  0  0  0  0  0  0
   -4.4472   18.1744  -12.6038 C   0  0  0  0  0  0  0  0  0  0  0  0
   -5.6498   16.1083  -12.4144 C   0  0  0  0  0  0  0  0  0  0  0  0
   -5.8631   16.3827  -10.9246 C   0  0  0  0  0  0  0  0  0  0  0  0
   -7.2721   14.3797  -10.5578 C   0  0  0  0  0  0  0  0  0  0  0  0
   -8.3228   14.9552  -10.3720 O   0  0  0  0  0  0  0  0  0  0  0  0
   -8.9372   12.9211  -12.8947 H   0  0  0  0  0  0  0  0  0  0  0  0
   -8.9372   12.9211  -12.8947 H   0  0  0  0  0  0  0  0  0  0  0  0
   -8.6516   17.9776   -5.3786 N   0  0  0  0  0  0  0  0  0  0  0  0
   -9.0907   17.0519   -4.7202 O   0  0  0  0  0  0  0  0  0  0  0  0
   -8.5584   19.0867   -4.8837 O   0  0  0  0  0  0  0  0  0  0  0  0
   -8.5750   12.5500  -11.4546 C   0  0  0  0  0  0  0  0  0  0  0  0
   -9.7658   13.9926  -13.1110 C   0  0  0  0  0  0  0  0  0  0  0  0
   -8.8519   12.7771  -12.9421 C   0  0  0  0  0  0  0  0  0  0  0  0
 30 31  1  0  0  0
 31 29  1  0  0  0
 29  1  1  0  0  0
  1 22  1  0  0  0
  1  2  1  0  0  0
  2  3  2  0  0  0
  2  4  1  0  0  0
  4  5  1  0  0  0
  5  6  2  0  0  0
  7  5  1  0  0  0
  7 21  1  0  0  0
  7  8  1  0  0  0
  7 22  1  0  0  0
  8  9  1  0  0  0
  9 14  2  0  0  0
  9 10  1  0  0  0
 10 11  2  0  0  0
 11 26  1  0  0  0
 11 12  1  0  0  0
 26 27  1  0  0  0
 26 28  2  0  0  0
 12 13  2  0  0  0
 13 14  1  0  0  0
 14 15  1  0  0  0
 15 21  1  0  0  0
 15 16  1  0  0  0
 16 17  1  0  0  0
 17 18  1  0  0  0
 18 19  1  0  0  0
 18 20  1  0  0  0
 20 21  1  0  0  0
 22 23  2  0  0  0
  4 24  1  0  0  0
 18 25  1  0  0  0
M  CHG 1  18   1
M  CHG 1  26   1
M  CHG 1  27  -1
M  END
> <minimizedAffinity>
-6.49502

$$$$
ZINC000096158661


 25 28  0  0  0  0  0  0  0  0999 V2000
   -8.0607   15.4532   -8.1637 N   0  0  0  0  0  0  0  0  0  0  0  0
   -9.3757   15.6702   -7.5454 C   0  0  0  0  0  0  0  0  0  0  0  0
   -9.7638   17.1424   -7.7165 C   0  0  0  0  0  0  0  0  0  0  0  0
   -8.6480   18.0282   -7.1627 C   0  0  0  0  0  0  0  0  0  0  0  0
   -9.0487   19.5101   -7.3128 C   0  0  0  0  0  0  0  0  0  0  0  0
   -9.5887   19.8492   -5.8962 C   0  0  0  0  0  0  0  0  0  0  0  0
   -8.6691   18.9694   -5.0121 C   0  0  0  0  0  0  0  0  0  0  0  0
   -8.4604   17.7658   -5.7691 O   0  0  0  0  0  0  0  0  0  0  0  0
   -7.3469   17.7744   -7.9235 C   0  0  0  0  0  0  0  0  0  0  0  0
   -6.9361   16.3036   -7.7501 C   0  0  0  0  0  0  0  0  0  0  0  0
   -9.4126   21.2751   -5.5899 N   0  0  0  0  0  0  0  0  0  0  0  0
   -9.1732   22.0416   -6.8395 C   0  0  0  0  0  0  0  0  0  0  0  0
   -9.5695   23.4878   -6.4496 C   0  0  0  0  0  0  0  0  0  0  0  0
  -10.7886   23.2743   -5.5232 C   0  0  0  0  0  0  0  0  0  0  0  0
  -10.6540   21.8286   -5.0070 C   0  0  0  0  0  0  0  0  0  0  0  0
   -8.1627   10.2921   -5.3968 H   0  0  0  0  0  0  0  0  0  0  0  0
   -7.8484   14.2681   -9.3008 S   0  0  0  0  0  0  0  0  0  0  0  0
   -9.1365   13.9837   -9.8292 O   0  0  0  0  0  0  0  0  0  0  0  0
   -7.0188   13.2819   -8.7024 O   0  0  0  0  0  0  0  0  0  0  0  0
   -6.2669   17.2186  -13.3627 C   0  0  0  0  0  0  0  0  0  0  0  0
   -6.2878   16.2101  -12.3002 N   0  0  0  0  0  0  0  0  0  0  0  0
   -5.3022   15.3348  -12.0066 C   0  0  0  0  0  0  0  0  0  0  0  0
   -5.6839   14.5971  -11.0002 N   0  0  0  0  0  0  0  0  0  0  0  0
   -6.9141   14.9713  -10.6189 C   0  0  0  0  0  0  0  0  0  0  0  0
   -7.3076   15.9831  -11.4158 C   0  0  0  0  0  0  0  0  0  0  0  0
 20 21  1  0  0  0
 21 25  1  0  0  0
 21 22  1  0  0  0
 22 23  2  0  0  0
 23 24  1  0  0  0
 24 17  1  0  0  0
 24 25  2  0  0  0
 17 18  2  0  0  0
 17 19  2  0  0  0
 17  1  1  0  0  0
  1 10  1  0  0  0
  1  2  1  0  0  0
  2  3  1  0  0  0
  3  4  1  0  0  0
  4  8  1  0  0  0
  4  5  1  0  0  0
  4  9  1  0  0  0
  5  6  1  0  0  0
  6 11  1  0  0  0
  6  7  1  0  0  0
 11 15  1  0  0  0
 11 12  1  0  0  0
 12 13  1  0  0  0
 13 14  1  0  0  0
 14 15  1  0  0  0
  7  8  1  0  0  0
  9 10  1  0  0  0
 11 16  1  0  0  0
M  CHG 1  11   1
M  END
> <minimizedAffinity>
-7.69473

$$$$
ZINC000079034506


 22 23  0  0  0  0  0  0  0  0999 V2000
   -9.1624   16.3839   -7.0786 C   0  0  0  0  0  0  0  0  0  0  0  0
  -10.0764   16.9633   -7.6260 O   0  0  0  0  0  0  0  0  0  0  0  0
   -8.8095   16.7175   -5.8214 N   0  0  0  0  0  0  0  0  0  0  0  0
   -9.9017   14.5810  -11.7861 H   0  0  0  0  0  0  0  0  0  0  0  0
   -9.5302   17.7801   -5.1159 C   0  0  0  0  0  0  0  0  0  0  0  0
   -8.9016   17.9964   -3.7366 C   0  0  0  0  0  0  0  0  0  0  0  0
   -9.6194   19.1480   -3.0292 C   0  0  0  0  0  0  0  0  0  0  0  0
   -9.5032   20.3689   -3.8369 N   0  0  0  0  0  0  0  0  0  0  0  0
  -10.0606   21.5263   -3.1246 C   0  0  0  0  0  0  0  0  0  0  0  0
  -10.1417   20.2006   -5.1485 C   0  0  0  0  0  0  0  0  0  0  0  0
   -9.4395   19.0805   -5.9192 C   0  0  0  0  0  0  0  0  0  0  0  0
  -10.9428   17.3962   -4.9594 C   0  0  0  0  0  0  0  0  0  0  0  0
  -12.0327   17.1001   -4.8385 N   0  0  0  0  0  0  0  0  0  0  0  0
   -8.4210   15.2907   -7.8043 C   0  0  0  0  0  0  0  0  0  0  0  0
   -7.9195   15.7966   -9.0431 O   0  0  0  0  0  0  0  0  0  0  0  0
   -6.0375   16.7519  -12.7676 C   0  0  0  0  0  0  0  0  0  0  0  0
   -6.6746   16.9131  -11.3858 C   0  0  0  0  0  0  0  0  0  0  0  0
   -6.6072   18.3815  -10.9614 C   0  0  0  0  0  0  0  0  0  0  0  0
   -7.2443   18.5427   -9.5796 C   0  0  0  0  0  0  0  0  0  0  0  0
   -6.4868   17.6834   -8.5654 C   0  0  0  0  0  0  0  0  0  0  0  0
   -6.5541   16.2150   -8.9899 C   0  0  0  0  0  0  0  0  0  0  0  0
   -5.9171   16.0538  -10.3716 C   0  0  0  0  0  0  0  0  0  0  0  0
 16 17  1  0  0  0
 17 22  1  0  0  0
 17 18  1  0  0  0
 18 19  1  0  0  0
 19 20  1  0  0  0
 20 21  1  0  0  0
 21 15  1  0  0  0
 21 22  1  0  0  0
 15 14  1  0  0  0
 14  1  1  0  0  0
  1  2  2  0  0  0
  1  3  1  0  0  0
  3  5  1  0  0  0
  5 11  1  0  0  0
  5 12  1  0  0  0
  5  6  1  0  0  0
 12 13  3  0  0  0
  6  7  1  0  0  0
  7  8  1  0  0  0
  8  9  1  0  0  0
  8 10  1  0  0  0
 10 11  1  0  0  0
  3  4  1  0  0  0
M  END
> <minimizedAffinity>
-6.64104

$$$$
ZINC000218039708


 28 30  0  0  0  0  0  0  0  0999 V2000
   -6.2784   15.2426   -8.1046 C   0  0  0  0  0  0  0  0  0  0  0  0
   -5.3499   15.3465   -7.3264 O   0  0  0  0  0  0  0  0  0  0  0  0
   -7.5236   15.5837   -7.7173 N   0  0  0  0  0  0  0  0  0  0  0  0
   -5.8417   12.8014   -9.4672 H   0  0  0  0  0  0  0  0  0  0  0  0
   -6.0259   17.1135  -10.2420 C   0  0  0  0  0  0  0  0  0  0  0  0
   -5.9178   15.6361  -10.5190 C   0  0  0  0  0  0  0  0  0  0  0  0
   -6.0422   14.7434   -9.4726 C   0  0  0  0  0  0  0  0  0  0  0  0
   -5.9447   13.3572   -9.7071 C   0  0  0  0  0  0  0  0  0  0  0  0
   -5.7225   12.9139  -11.0046 C   0  0  0  0  0  0  0  0  0  0  0  0
   -5.5992   13.9094  -12.0724 C   0  0  0  0  0  0  0  0  0  0  0  0
   -5.4041   13.5540  -13.2212 O   0  0  0  0  0  0  0  0  0  0  0  0
   -5.7082   15.2189  -11.7784 N   0  0  0  0  0  0  0  0  0  0  0  0
   -4.1636   14.9511   -9.9619 H   0  0  0  0  0  0  0  0  0  0  0  0
   -5.6166   11.5151  -11.2922 C   0  0  0  0  0  0  0  0  0  0  0  0
   -5.5326   10.4054  -11.5202 N   0  0  0  0  0  0  0  0  0  0  0  0
   -7.7582   16.0793   -6.3589 C   0  0  0  0  0  0  0  0  0  0  0  0
   -8.3245   17.5061   -6.3145 C   0  0  0  0  0  0  0  0  0  0  0  0
   -8.2025   18.2609   -7.6546 C   0  0  0  0  0  0  0  0  0  0  0  0
   -9.1671   17.5140   -8.5910 C   0  0  0  0  0  0  0  0  0  0  0  0
  -10.0331   16.7105   -7.7887 O   0  0  0  0  0  0  0  0  0  0  0  0
   -9.7300   16.8638   -6.3829 C   0  0  0  0  0  0  0  0  0  0  0  0
   -9.0915   15.6097   -5.7541 C   0  0  0  0  0  0  0  0  0  0  0  0
   -9.1266   15.6057   -4.2896 N   0  0  0  0  0  0  0  0  0  0  0  0
   -5.5695   12.9024   -9.5454 H   0  0  0  0  0  0  0  0  0  0  0  0
  -10.1316   14.5615   -3.4883 S   0  0  0  0  0  0  0  0  0  0  0  0
   -9.3075   14.2702   -1.8987 C   0  0  0  0  0  0  0  0  0  0  0  0
  -11.3294   15.3028   -3.3005 O   0  0  0  0  0  0  0  0  0  0  0  0
  -10.1164   13.3825   -4.2813 O   0  0  0  0  0  0  0  0  0  0  0  0
  5  6  1  0  0  0
  6 12  1  0  0  0
  6  7  2  0  0  0
  7  1  1  0  0  0
  7  8  1  0  0  0
  1  2  2  0  0  0
  1  3  1  0  0  0
  3 16  1  0  0  0
 16 22  1  0  0  0
 16 17  1  0  0  0
 17 21  1  0  0  0
 17 18  1  0  0  0
 18 19  1  0  0  0
 19 20  1  0  0  0
 20 21  1  0  0  0
 21 22  1  0  0  0
 22 23  1  0  0  0
 23 25  1  0  0  0
 25 26  1  0  0  0
 25 27  2  0  0  0
 25 28  2  0  0  0
  8  9  2  0  0  0
  9 14  1  0  0  0
  9 10  1  0  0  0
 14 15  3  0  0  0
 10 11  2  0  0  0
 10 12  1  0  0  0
  3  4  1  0  0  0
 23 24  1  0  0  0
 12 13  1  0  0  0
M  END
> <minimizedAffinity>
-7.37179

$$$$
ZINC000065172597


 32 36  0  0  0  0  0  0  0  0999 V2000
   -9.9062   20.8592   -3.7940 C   0  0  0  0  0  0  0  0  0  0  0  0
   -9.2176   19.6859   -3.4536 C   0  0  0  0  0  0  0  0  0  0  0  0
   -8.6691   18.8985   -4.4214 C   0  0  0  0  0  0  0  0  0  0  0  0
   -8.7866   19.2491   -5.7641 C   0  0  0  0  0  0  0  0  0  0  0  0
   -9.4819   20.4265   -6.1250 C   0  0  0  0  0  0  0  0  0  0  0  0
  -10.0437   21.2266   -5.1268 C   0  0  0  0  0  0  0  0  0  0  0  0
   -9.4517   20.5179   -7.4709 N   0  0  0  0  0  0  0  0  0  0  0  0
   -8.8044   19.5079   -7.9605 C   0  0  0  0  0  0  0  0  0  0  0  0
   -8.4972   19.1599   -9.3718 C   0  0  0  0  0  0  0  0  0  0  0  0
   -8.6906   19.9431  -10.2809 O   0  0  0  0  0  0  0  0  0  0  0  0
   -7.9903   17.9243   -9.5912 N   0  0  0  0  0  0  0  0  0  0  0  0
   -7.9542   16.9092   -8.5445 C   0  0  0  0  0  0  0  0  0  0  0  0
   -7.5715   17.4886   -7.1826 C   0  0  0  0  0  0  0  0  0  0  0  0
   -8.3594   18.6960   -6.9334 N   0  0  0  0  0  0  0  0  0  0  0  0
   -9.4901   25.6654   -2.6415 N   0  0  0  0  0  0  0  0  0  0  0  0
   -9.0386   24.7870   -3.7281 C   0  0  0  0  0  0  0  0  0  0  0  0
   -8.7618   23.3870   -3.1703 C   0  0  0  0  0  0  0  0  0  0  0  0
   -9.9677   22.9170   -2.4709 N   0  0  0  0  0  0  0  0  0  0  0  0
  -10.4922   21.7034   -2.7330 C   0  0  0  0  0  0  0  0  0  0  0  0
  -11.4476   21.3036   -2.0963 O   0  0  0  0  0  0  0  0  0  0  0  0
  -10.5845   23.8088   -1.4768 C   0  0  0  0  0  0  0  0  0  0  0  0
  -10.7757   25.1882   -2.1165 C   0  0  0  0  0  0  0  0  0  0  0  0
   -7.8088   22.7103    1.8573 H   0  0  0  0  0  0  0  0  0  0  0  0
   -9.7485   26.9971   -4.6804 C   0  0  0  0  0  0  0  0  0  0  0  0
   -9.6497   27.0328   -3.1540 C   0  0  0  0  0  0  0  0  0  0  0  0
  -10.9249   27.6487   -2.5747 C   0  0  0  0  0  0  0  0  0  0  0  0
   -7.4623   17.5973  -10.9180 C   0  0  0  0  0  0  0  0  0  0  0  0
   -6.0536   18.1766  -11.0632 C   0  0  0  0  0  0  0  0  0  0  0  0
   -5.5021   17.8350  -12.4488 C   0  0  0  0  0  0  0  0  0  0  0  0
   -5.4482   16.3151  -12.6159 C   0  0  0  0  0  0  0  0  0  0  0  0
   -6.8568   15.7358  -12.4707 C   0  0  0  0  0  0  0  0  0  0  0  0
   -7.4084   16.0774  -11.0851 C   0  0  0  0  0  0  0  0  0  0  0  0
 24 25  1  0  0  0
 25 26  1  0  0  0
 25 15  1  0  0  0
 15 22  1  0  0  0
 15 16  1  0  0  0
 16 17  1  0  0  0
 17 18  1  0  0  0
 18 19  1  0  0  0
 18 21  1  0  0  0
 19 20  2  0  0  0
 19  1  1  0  0  0
  1  6  1  0  0  0
  1  2  2  0  0  0
  2  3  1  0  0  0
  3  4  2  0  0  0
  4 14  1  0  0  0
  4  5  1  0  0  0
  5  6  2  0  0  0
  5  7  1  0  0  0
  7  8  2  0  0  0
  8 14  1  0  0  0
  8  9  1  0  0  0
  9 10  2  0  0  0
  9 11  1  0  0  0
 11 27  1  0  0  0
 11 12  1  0  0  0
 27 32  1  0  0  0
 27 28  1  0  0  0
 28 29  1  0  0  0
 29 30  1  0  0  0
 30 31  1  0  0  0
 31 32  1  0  0  0
 12 13  1  0  0  0
 13 14  1  0  0  0
 21 22  1  0  0  0
 15 23  1  0  0  0
M  CHG 1  15   1
M  END
> <minimizedAffinity>
-8.66114

$$$$
ZINC000004052414


 17 18  0  0  0  0  0  0  0  0999 V2000
   -6.1268   16.3401   -9.5928 S   0  0  0  0  0  0  0  0  0  0  0  0
   -5.7233   15.5198   -8.5049 O   0  0  0  0  0  0  0  0  0  0  0  0
   -7.1680   17.5352   -8.8233 C   0  0  0  0  0  0  0  0  0  0  0  0
   -7.4713   17.4242   -7.4792 C   0  0  0  0  0  0  0  0  0  0  0  0
   -8.2881   18.3614   -6.8751 C   0  0  0  0  0  0  0  0  0  0  0  0
   -8.8020   19.4108   -7.6157 C   0  0  0  0  0  0  0  0  0  0  0  0
   -9.8274   20.5887   -6.8576 Cl  0  0  0  0  0  0  0  0  0  0  0  0
   -8.4980   19.5215   -8.9610 C   0  0  0  0  0  0  0  0  0  0  0  0
   -7.6767   18.5868   -9.5627 C   0  0  0  0  0  0  0  0  0  0  0  0
   -7.2881   15.2964  -11.8575 C   0  0  0  0  0  0  0  0  0  0  0  0
   -8.2167   14.4655  -12.4938 C   0  0  0  0  0  0  0  0  0  0  0  0
   -9.0761   13.7084  -11.7226 C   0  0  0  0  0  0  0  0  0  0  0  0
   -9.0298   13.7619  -10.4061 N   0  0  0  0  0  0  0  0  0  0  0  0
   -8.1706   14.5312   -9.7665 C   0  0  0  0  0  0  0  0  0  0  0  0
   -7.2705   15.3165  -10.4582 C   0  0  0  0  0  0  0  0  0  0  0  0
   -5.6548   16.7363  -13.2190 N   0  0  0  0  0  0  0  0  0  0  0  0
   -6.3773   16.0994  -12.6167 C   0  0  0  0  0  0  0  0  0  0  0  0
 16 17  3  0  0  0
 17 10  1  0  0  0
 10 15  2  0  0  0
 10 11  1  0  0  0
 11 12  2  0  0  0
 12 13  1  0  0  0
 13 14  2  0  0  0
 14 15  1  0  0  0
  1 15  1  0  0  0
  1  2  2  0  0  0
  1  3  1  0  0  0
  3  9  1  0  0  0
  3  4  2  0  0  0
  4  5  1  0  0  0
  5  6  2  0  0  0
  6  7  1  0  0  0
  6  8  1  0  0  0
  8  9  2  0  0  0
M  END
> <minimizedAffinity>
-6.31408

$$$$
ZINC000015708473


 35 37  0  0  0  0  0  0  0  0999 V2000
   -9.6306   18.3545   -5.0952 C   0  0  0  0  0  0  0  0  0  0  0  0
   -9.4204   17.2472   -4.0518 C   0  0  0  0  0  0  0  0  0  0  0  0
   -9.4451   15.9184   -4.6502 N   0  0  0  0  0  0  0  0  0  0  0  0
   -9.4471   15.6804   -5.9769 C   0  0  0  0  0  0  0  0  0  0  0  0
   -9.3624   14.5469   -6.3999 O   0  0  0  0  0  0  0  0  0  0  0  0
   -9.5560   16.8355   -6.9175 C   0  0  0  0  0  0  0  0  0  0  0  0
   -8.7925   16.6818   -8.2404 C   0  0  0  0  0  0  0  0  0  0  0  0
   -8.5928   18.1657   -8.6637 C   0  0  0  0  0  0  0  0  0  0  0  0
   -8.7159   18.9762   -7.3476 C   0  0  0  0  0  0  0  0  0  0  0  0
   -8.8698   17.9901   -6.2775 N   0  0  0  0  0  0  0  0  0  0  0  0
  -10.2940   24.9219   -5.7632 H   0  0  0  0  0  0  0  0  0  0  0  0
  -10.2940   24.9219   -5.7632 H   0  0  0  0  0  0  0  0  0  0  0  0
   -7.2665   18.3522   -9.2574 N   0  0  0  0  0  0  0  0  0  0  0  0
   -8.8570   23.2378   -3.0818 H   0  0  0  0  0  0  0  0  0  0  0  0
   -7.1510   18.6766  -10.5605 C   0  0  0  0  0  0  0  0  0  0  0  0
   -8.2064   19.8341  -11.2513 S   0  0  0  0  0  0  0  0  0  0  0  0
   -6.2047   18.0895  -11.3197 N   0  0  0  0  0  0  0  0  0  0  0  0
  -11.6593   25.4114  -14.2972 H   0  0  0  0  0  0  0  0  0  0  0  0
   -6.2681   16.7141  -11.5785 C   0  0  0  0  0  0  0  0  0  0  0  0
   -5.1232   15.9349  -11.4779 C   0  0  0  0  0  0  0  0  0  0  0  0
   -5.1865   14.5792  -11.7332 C   0  0  0  0  0  0  0  0  0  0  0  0
   -6.3934   13.9959  -12.0901 C   0  0  0  0  0  0  0  0  0  0  0  0
   -7.5376   14.7736  -12.1904 C   0  0  0  0  0  0  0  0  0  0  0  0
   -7.4768   16.1285  -11.9302 C   0  0  0  0  0  0  0  0  0  0  0  0
   -6.4549   12.6609  -12.3414 O   0  0  0  0  0  0  0  0  0  0  0  0
   -7.4710   11.9193  -11.6634 C   0  0  0  0  0  0  0  0  0  0  0  0
   -9.1274   19.6903   -4.5444 C   0  0  0  0  0  0  0  0  0  0  0  0
  -10.3212   20.5912   -4.2219 C   0  0  0  0  0  0  0  0  0  0  0  0
   -9.4370   22.3012   -5.7750 N   0  0  0  0  0  0  0  0  0  0  0  0
  -10.4984   21.6040   -5.3236 C   0  0  0  0  0  0  0  0  0  0  0  0
  -11.5960   21.7916   -5.8041 O   0  0  0  0  0  0  0  0  0  0  0  0
  -12.6984   25.3316   -3.4998 H   0  0  0  0  0  0  0  0  0  0  0  0
   -9.6092   23.2858   -6.8461 C   0  0  0  0  0  0  0  0  0  0  0  0
   -9.6069   25.7220   -5.8133 C   0  0  0  0  0  0  0  0  0  0  0  0
   -9.6080   24.6411   -6.2716 C   0  0  0  0  0  0  0  0  0  0  0  0
 34 35  3  0  0  0
 35 33  1  0  0  0
 33 29  1  0  0  0
 29 30  1  0  0  0
 30 31  2  0  0  0
 30 28  1  0  0  0
 28 27  1  0  0  0
 27  1  1  0  0  0
  1 10  1  0  0  0
  1  2  1  0  0  0
  2  3  1  0  0  0
  3  4  1  0  0  0
  4  5  2  0  0  0
  4  6  1  0  0  0
  6 10  1  0  0  0
  6  7  1  0  0  0
  7  8  1  0  0  0
  8 13  1  0  0  0
  8  9  1  0  0  0
 13 15  1  0  0  0
 15 16  2  0  0  0
 15 17  1  0  0  0
 17 19  1  0  0  0
 19 24  1  0  0  0
 19 20  2  0  0  0
 20 21  1  0  0  0
 21 22  2  0  0  0
 22 25  1  0  0  0
 22 23  1  0  0  0
 25 26  1  0  0  0
 23 24  2  0  0  0
  9 10  1  0  0  0
 29 32  1  0  0  0
  3 11  1  0  0  0
 13 14  1  0  0  0
 17 18  1  0  0  0
 10 12  1  0  0  0
M  CHG 1  10   1
M  END
> <minimizedAffinity>
-7.67695

$$$$
ZINC000016248871


 40 43  0  0  0  0  0  0  0  0999 V2000
   -7.3461   20.5295   -9.8827 C   0  0  0  0  0  0  0  0  0  0  0  0
   -8.3507   19.6375  -10.6148 C   0  0  0  0  0  0  0  0  0  0  0  0
   -7.7581   19.1818  -11.9233 C   0  0  0  0  0  0  0  0  0  0  0  0
   -8.0328   19.8562  -13.0907 C   0  0  0  0  0  0  0  0  0  0  0  0
   -7.4862   19.4245  -14.2896 C   0  0  0  0  0  0  0  0  0  0  0  0
   -6.6631   18.3162  -14.3263 C   0  0  0  0  0  0  0  0  0  0  0  0
   -6.3734   17.6244  -13.1589 C   0  0  0  0  0  0  0  0  0  0  0  0
   -5.5657   16.5350  -13.1922 O   0  0  0  0  0  0  0  0  0  0  0  0
   -6.9219   18.0598  -11.9459 C   0  0  0  0  0  0  0  0  0  0  0  0
   -6.6265   17.3544  -10.6883 C   0  0  0  0  0  0  0  0  0  0  0  0
   -5.5541   16.5382  -10.5953 O   0  0  0  0  0  0  0  0  0  0  0  0
   -7.4649   17.5408   -9.6018 C   0  0  0  0  0  0  0  0  0  0  0  0
   -7.1607   16.8981   -8.4034 C   0  0  0  0  0  0  0  0  0  0  0  0
   -6.1936   16.1621   -8.3653 O   0  0  0  0  0  0  0  0  0  0  0  0
   -7.9755   17.0772   -7.1617 C   0  0  0  0  0  0  0  0  0  0  0  0
   -7.3166   17.9962   -6.2881 O   0  0  0  0  0  0  0  0  0  0  0  0
   -8.1783   15.7592   -6.4472 C   0  0  0  0  0  0  0  0  0  0  0  0
   -7.5037   14.7842   -6.7072 O   0  0  0  0  0  0  0  0  0  0  0  0
   -9.2309   15.7167   -5.4230 C   0  0  0  0  0  0  0  0  0  0  0  0
  -10.1385   16.7429   -5.3206 C   0  0  0  0  0  0  0  0  0  0  0  0
  -11.0858   16.6714   -4.3740 O   0  0  0  0  0  0  0  0  0  0  0  0
  -10.1131   17.9435   -6.2260 C   0  0  0  0  0  0  0  0  0  0  0  0
   -9.3667   17.6167   -7.5159 C   0  0  0  0  0  0  0  0  0  0  0  0
   -9.1946   18.8628   -8.3849 C   0  0  0  0  0  0  0  0  0  0  0  0
   -8.2594   19.7526   -7.7720 O   0  0  0  0  0  0  0  0  0  0  0  0
   -8.6734   18.4207   -9.7525 C   0  0  0  0  0  0  0  0  0  0  0  0
  -13.3437   20.9267   -8.0969 H   0  0  0  0  0  0  0  0  0  0  0  0
  -13.3437   20.9267   -8.0969 H   0  0  0  0  0  0  0  0  0  0  0  0
  -13.3437   20.9267   -8.0969 H   0  0  0  0  0  0  0  0  0  0  0  0
  -13.3437   20.9267   -8.0969 H   0  0  0  0  0  0  0  0  0  0  0  0
  -13.3437   20.9267   -8.0969 H   0  0  0  0  0  0  0  0  0  0  0  0
   -9.3129   14.5709   -4.5032 C   0  0  0  0  0  0  0  0  0  0  0  0
   -8.5851   14.5638   -3.3690 N   0  0  0  0  0  0  0  0  0  0  0  0
  -10.0378   13.6302   -4.7667 O   0  0  0  0  0  0  0  0  0  0  0  0
  -10.7831   17.4594  -12.1879 H   0  0  0  0  0  0  0  0  0  0  0  0
  -10.7831   17.4594  -12.1879 H   0  0  0  0  0  0  0  0  0  0  0  0
   -9.4353   19.0535   -5.5429 N   0  0  0  0  0  0  0  0  0  0  0  0
  -10.3408   20.2078   -5.4674 C   0  0  0  0  0  0  0  0  0  0  0  0
   -9.0592   18.6366   -4.1855 C   0  0  0  0  0  0  0  0  0  0  0  0
  -13.5392   20.8721   -7.8141 H   0  0  0  0  0  0  0  0  0  0  0  0
  1  2  1  0  0  0
  2 26  1  0  0  0
  2  3  1  0  0  0
  3  9  2  0  0  0
  3  4  1  0  0  0
  4  5  2  0  0  0
  5  6  1  0  0  0
  6  7  2  0  0  0
  7  8  1  0  0  0
  7  9  1  0  0  0
  9 10  1  0  0  0
 10 11  1  0  0  0
 10 12  2  0  0  0
 12 26  1  0  0  0
 12 13  1  0  0  0
 13 14  2  0  0  0
 13 15  1  0  0  0
 15 23  1  0  0  0
 15 16  1  0  0  0
 15 17  1  0  0  0
 17 18  2  0  0  0
 17 19  1  0  0  0
 19 32  1  0  0  0
 19 20  2  0  0  0
 32 33  1  0  0  0
 32 34  2  0  0  0
 20 21  1  0  0  0
 20 22  1  0  0  0
 22 37  1  0  0  0
 22 23  1  0  0  0
 37 38  1  0  0  0
 37 39  1  0  0  0
 23 24  1  0  0  0
 24 25  1  0  0  0
 24 26  1  0  0  0
  8 27  1  0  0  0
 11 28  1  0  0  0
 16 29  1  0  0  0
 33 35  1  0  0  0
 33 36  1  0  0  0
 21 30  1  0  0  0
 37 40  1  0  0  0
 25 31  1  0  0  0
M  CHG 1  37   1
M  END
> <minimizedAffinity>
-9.29532

$$$$
ZINC000009262589


 33 37  0  0  0  0  0  0  0  0999 V2000
   -6.8205   18.2515  -12.2946 O   0  0  0  0  0  0  0  0  0  0  0  0
   -6.7791   17.8202  -11.1564 C   0  0  0  0  0  0  0  0  0  0  0  0
   -7.5198   18.4848  -10.0845 C   0  0  0  0  0  0  0  0  0  0  0  0
   -8.2987   19.6228  -10.2960 C   0  0  0  0  0  0  0  0  0  0  0  0
   -8.9314   20.1512   -9.2627 N   0  0  0  0  0  0  0  0  0  0  0  0
   -8.8377   19.6226   -8.0467 C   0  0  0  0  0  0  0  0  0  0  0  0
   -8.1121   18.5437   -7.7929 N   0  0  0  0  0  0  0  0  0  0  0  0
   -7.4423   17.9474   -8.7744 C   0  0  0  0  0  0  0  0  0  0  0  0
   -6.6252   16.7560   -8.5638 C   0  0  0  0  0  0  0  0  0  0  0  0
   -5.9765   16.2088   -9.6075 C   0  0  0  0  0  0  0  0  0  0  0  0
   -6.0541   16.7201  -10.8682 N   0  0  0  0  0  0  0  0  0  0  0  0
   -9.5231   20.2207   -7.0085 N   0  0  0  0  0  0  0  0  0  0  0  0
   -9.2638   21.6668   -6.9702 C   0  0  0  0  0  0  0  0  0  0  0  0
  -10.0861   22.2999   -5.8456 C   0  0  0  0  0  0  0  0  0  0  0  0
   -9.7179   21.6849   -4.5636 N   0  0  0  0  0  0  0  0  0  0  0  0
  -10.0055   20.2452   -4.6087 C   0  0  0  0  0  0  0  0  0  0  0  0
   -9.1825   19.5951   -5.7229 C   0  0  0  0  0  0  0  0  0  0  0  0
   -6.0144   16.9143  -10.9870 H   0  0  0  0  0  0  0  0  0  0  0  0
  -10.4948   22.3052   -3.4822 C   0  0  0  0  0  0  0  0  0  0  0  0
   -9.7974   22.0742   -2.1663 C   0  0  0  0  0  0  0  0  0  0  0  0
  -10.4975   21.5501   -1.0957 C   0  0  0  0  0  0  0  0  0  0  0  0
   -9.8579   21.3382    0.1113 C   0  0  0  0  0  0  0  0  0  0  0  0
   -8.5181   21.6500    0.2476 C   0  0  0  0  0  0  0  0  0  0  0  0
   -7.8178   22.1734   -0.8232 C   0  0  0  0  0  0  0  0  0  0  0  0
   -8.4564   22.3812   -2.0315 C   0  0  0  0  0  0  0  0  0  0  0  0
   -5.3139   16.0591  -11.9459 C   0  0  0  0  0  0  0  0  0  0  0  0
   -5.2643   14.5529  -11.6814 C   0  0  0  0  0  0  0  0  0  0  0  0
   -6.6054   13.9428  -11.9981 C   0  0  0  0  0  0  0  0  0  0  0  0
   -6.9646   12.6636  -11.7782 C   0  0  0  0  0  0  0  0  0  0  0  0
   -8.2578   12.5360  -12.2084 N   0  0  0  0  0  0  0  0  0  0  0  0
   -8.6440   13.7424  -12.6765 C   0  0  0  0  0  0  0  0  0  0  0  0
   -7.6523   14.5801  -12.5428 N   0  0  0  0  0  0  0  0  0  0  0  0
   -4.3506   17.7305  -12.1177 H   0  0  0  0  0  0  0  0  0  0  0  0
  1  2  2  0  0  0
  2 11  1  0  0  0
  2  3  1  0  0  0
  3  8  2  0  0  0
  3  4  1  0  0  0
  4  5  2  0  0  0
  5  6  1  0  0  0
  6 12  1  0  0  0
  6  7  2  0  0  0
 12 17  1  0  0  0
 12 13  1  0  0  0
 13 14  1  0  0  0
 14 15  1  0  0  0
 15 19  1  0  0  0
 15 16  1  0  0  0
 19 20  1  0  0  0
 20 25  1  0  0  0
 20 21  2  0  0  0
 21 22  1  0  0  0
 22 23  2  0  0  0
 23 24  1  0  0  0
 24 25  2  0  0  0
 16 17  1  0  0  0
  7  8  1  0  0  0
  8  9  1  0  0  0
  9 10  2  0  0  0
 10 11  1  0  0  0
 11 26  1  0  0  0
 26 27  1  0  0  0
 27 28  1  0  0  0
 28 32  1  0  0  0
 28 29  2  0  0  0
 29 30  1  0  0  0
 30 31  1  0  0  0
 31 32  2  0  0  0
 15 18  1  0  0  0
 30 33  1  0  0  0
M  CHG 1  15   1
M  END
> <minimizedAffinity>
-7.85963

$$$$
ZINC000007327449


 25 26  0  0  0  0  0  0  0  0999 V2000
   -7.9893   16.2952   -7.6550 N   0  0  0  0  0  0  0  0  0  0  0  0
   -6.6891   16.0800   -7.9372 C   0  0  0  0  0  0  0  0  0  0  0  0
   -5.8899   16.9873   -7.8429 O   0  0  0  0  0  0  0  0  0  0  0  0
  -11.1060   21.7374   -6.2573 H   0  0  0  0  0  0  0  0  0  0  0  0
   -9.3215   20.1435   -6.7795 C   0  0  0  0  0  0  0  0  0  0  0  0
   -8.9400   19.2822   -5.7466 C   0  0  0  0  0  0  0  0  0  0  0  0
   -8.5003   18.0112   -6.0396 C   0  0  0  0  0  0  0  0  0  0  0  0
   -8.4351   17.5833   -7.3620 C   0  0  0  0  0  0  0  0  0  0  0  0
   -8.8144   18.4377   -8.3927 C   0  0  0  0  0  0  0  0  0  0  0  0
   -9.2597   19.7085   -8.1068 C   0  0  0  0  0  0  0  0  0  0  0  0
   -9.7936   21.5057   -6.4696 C   0  0  0  0  0  0  0  0  0  0  0  0
  -10.9494   21.6884   -6.1424 O   0  0  0  0  0  0  0  0  0  0  0  0
   -9.5296   23.8667   -6.7077 C   0  0  0  0  0  0  0  0  0  0  0  0
   -8.9431   22.5479   -6.5492 O   0  0  0  0  0  0  0  0  0  0  0  0
   -6.2284   14.7119   -8.3697 C   0  0  0  0  0  0  0  0  0  0  0  0
   -5.7087   14.7795   -9.8071 C   0  0  0  0  0  0  0  0  0  0  0  0
   -6.6754   14.1447  -10.7063 N   0  0  0  0  0  0  0  0  0  0  0  0
   -6.7666   12.7500  -10.7468 N   0  0  0  0  0  0  0  0  0  0  0  0
   -7.6455   12.1376  -11.5624 C   0  0  0  0  0  0  0  0  0  0  0  0
   -7.7110   10.9241  -11.5839 O   0  0  0  0  0  0  0  0  0  0  0  0
   -8.5309   12.9409  -12.4311 C   0  0  0  0  0  0  0  0  0  0  0  0
   -8.4431   14.2826  -12.3923 C   0  0  0  0  0  0  0  0  0  0  0  0
   -7.4676   14.9124  -11.4781 C   0  0  0  0  0  0  0  0  0  0  0  0
   -7.3743   16.1232  -11.4295 O   0  0  0  0  0  0  0  0  0  0  0  0
   -2.5428   19.2186   -1.7054 H   0  0  0  0  0  0  0  0  0  0  0  0
 13 14  1  0  0  0
 14 11  1  0  0  0
 11 12  2  0  0  0
 11  5  1  0  0  0
  5 10  2  0  0  0
  5  6  1  0  0  0
  6  7  2  0  0  0
  7  8  1  0  0  0
  8  1  1  0  0  0
  8  9  2  0  0  0
  1  2  1  0  0  0
  2  3  2  0  0  0
  2 15  1  0  0  0
 15 16  1  0  0  0
 16 17  1  0  0  0
 17 23  1  0  0  0
 17 18  1  0  0  0
 18 19  1  0  0  0
 19 20  2  0  0  0
 19 21  1  0  0  0
 21 22  2  0  0  0
 22 23  1  0  0  0
 23 24  2  0  0  0
  9 10  1  0  0  0
  1  4  1  0  0  0
 18 25  1  0  0  0
M  END
> <minimizedAffinity>
-7.31028

$$$$
ZINC000069420971


 23 24  0  0  0  0  0  0  0  0999 V2000
   -5.1529   16.0591  -12.0472 C   0  0  0  0  0  0  0  0  0  0  0  0
   -5.8008   14.9615  -12.7695 N   0  0  0  0  0  0  0  0  0  0  0  0
   -8.7305   13.6802   -9.3783 H   0  0  0  0  0  0  0  0  0  0  0  0
   -5.9165   13.4648  -12.0704 S   0  0  0  0  0  0  0  0  0  0  0  0
   -4.6056   12.9163  -12.0769 O   0  0  0  0  0  0  0  0  0  0  0  0
   -7.0302   12.8235  -12.6770 O   0  0  0  0  0  0  0  0  0  0  0  0
   -5.6614   14.2932   -6.8868 C   0  0  0  0  0  0  0  0  0  0  0  0
   -6.1998   14.0559   -8.2285 N   0  0  0  0  0  0  0  0  0  0  0  0
   -5.4781   13.9134   -9.3598 C   0  0  0  0  0  0  0  0  0  0  0  0
   -6.3446   13.7107  -10.3790 C   0  0  0  0  0  0  0  0  0  0  0  0
   -7.6404   13.7301   -9.8527 C   0  0  0  0  0  0  0  0  0  0  0  0
   -7.5545   13.9309   -8.5626 N   0  0  0  0  0  0  0  0  0  0  0  0
   -5.8996   17.3648  -12.3273 C   0  0  0  0  0  0  0  0  0  0  0  0
   -7.0863   17.4892  -11.3696 C   0  0  0  0  0  0  0  0  0  0  0  0
   -6.5984   17.3243   -9.9289 C   0  0  0  0  0  0  0  0  0  0  0  0
   -7.6533   17.7561   -9.0023 N   0  0  0  0  0  0  0  0  0  0  0  0
   -8.0253   19.1574   -9.2437 C   0  0  0  0  0  0  0  0  0  0  0  0
   -9.1651   19.5493   -8.3008 C   0  0  0  0  0  0  0  0  0  0  0  0
   -8.7314   19.3729   -6.9086 N   0  0  0  0  0  0  0  0  0  0  0  0
   -9.8196   19.7660   -6.0034 C   0  0  0  0  0  0  0  0  0  0  0  0
   -8.3867   17.9641   -6.6760 C   0  0  0  0  0  0  0  0  0  0  0  0
   -7.2406   17.5590   -7.6055 C   0  0  0  0  0  0  0  0  0  0  0  0
   -5.2751   21.0615  -17.4545 H   0  0  0  0  0  0  0  0  0  0  0  0
  7  8  1  0  0  0
  8 12  1  0  0  0
  8  9  1  0  0  0
  9 10  2  0  0  0
 10  4  1  0  0  0
 10 11  1  0  0  0
  4  5  2  0  0  0
  4  6  2  0  0  0
  4  2  1  0  0  0
  2  1  1  0  0  0
  1 13  1  0  0  0
 13 14  1  0  0  0
 14 15  1  0  0  0
 15 16  1  0  0  0
 16 22  1  0  0  0
 16 17  1  0  0  0
 17 18  1  0  0  0
 18 19  1  0  0  0
 19 20  1  0  0  0
 19 21  1  0  0  0
 21 22  1  0  0  0
 11 12  2  0  0  0
  2  3  1  0  0  0
 19 23  1  0  0  0
M  CHG 1  19   1
M  END
> <minimizedAffinity>
-6.11940

$$$$
ZINC000041152811


 28 31  0  0  0  0  0  0  0  0999 V2000
   -8.5347   18.0285   -5.7767 N   0  0  0  0  0  0  0  0  0  0  0  0
   -4.7065   24.9287   -6.7503 H   0  0  0  0  0  0  0  0  0  0  0  0
   -9.2011   16.5140   -5.8462 S   0  0  0  0  0  0  0  0  0  0  0  0
   -8.8715   15.8739   -4.6210 O   0  0  0  0  0  0  0  0  0  0  0  0
  -10.5371   16.6839   -6.2995 O   0  0  0  0  0  0  0  0  0  0  0  0
   -8.3545   15.6294   -7.1133 C   0  0  0  0  0  0  0  0  0  0  0  0
   -6.9852   15.4575   -7.0377 C   0  0  0  0  0  0  0  0  0  0  0  0
   -6.3172   14.7660   -8.0311 C   0  0  0  0  0  0  0  0  0  0  0  0
   -7.0196   14.2426   -9.1059 C   0  0  0  0  0  0  0  0  0  0  0  0
   -6.3473   13.5713  -10.0805 O   0  0  0  0  0  0  0  0  0  0  0  0
   -7.1290   12.7431  -10.9481 C   0  0  0  0  0  0  0  0  0  0  0  0
   -8.3624   13.5410  -11.3919 C   0  0  0  0  0  0  0  0  0  0  0  0
   -9.1069   13.9026  -10.2236 O   0  0  0  0  0  0  0  0  0  0  0  0
   -8.3974   14.4123   -9.1799 C   0  0  0  0  0  0  0  0  0  0  0  0
   -9.0619   15.1037   -8.1783 C   0  0  0  0  0  0  0  0  0  0  0  0
   -9.2635   19.1751   -6.3249 C   0  0  0  0  0  0  0  0  0  0  0  0
   -8.0100   19.2166   -9.6934 C   0  0  0  0  0  0  0  0  0  0  0  0
   -8.5276   20.4101   -9.5610 N   0  0  0  0  0  0  0  0  0  0  0  0
   -8.9971   20.5399   -8.4503 O   0  0  0  0  0  0  0  0  0  0  0  0
   -8.8230   19.4175   -7.7456 C   0  0  0  0  0  0  0  0  0  0  0  0
   -8.2020   18.5662   -8.5236 N   0  0  0  0  0  0  0  0  0  0  0  0
   -7.1862   19.3856  -14.6154 C   0  0  0  0  0  0  0  0  0  0  0  0
   -6.9439   18.7529  -13.2692 C   0  0  0  0  0  0  0  0  0  0  0  0
   -6.0968   17.6652  -13.1601 C   0  0  0  0  0  0  0  0  0  0  0  0
   -5.8696   17.0799  -11.9274 C   0  0  0  0  0  0  0  0  0  0  0  0
   -6.4880   17.5791  -10.7992 C   0  0  0  0  0  0  0  0  0  0  0  0
   -7.3425   18.6749  -10.9033 C   0  0  0  0  0  0  0  0  0  0  0  0
   -7.5636   19.2637  -12.1464 C   0  0  0  0  0  0  0  0  0  0  0  0
 22 23  1  0  0  0
 23 28  2  0  0  0
 23 24  1  0  0  0
 24 25  2  0  0  0
 25 26  1  0  0  0
 26 27  2  0  0  0
 27 17  1  0  0  0
 27 28  1  0  0  0
 17 21  1  0  0  0
 17 18  2  0  0  0
 18 19  1  0  0  0
 19 20  1  0  0  0
 20 16  1  0  0  0
 20 21  2  0  0  0
 16  1  1  0  0  0
  1  3  1  0  0  0
  3  4  2  0  0  0
  3  5  2  0  0  0
  3  6  1  0  0  0
  6 15  1  0  0  0
  6  7  2  0  0  0
  7  8  1  0  0  0
  8  9  2  0  0  0
  9 14  1  0  0  0
  9 10  1  0  0  0
 10 11  1  0  0  0
 11 12  1  0  0  0
 12 13  1  0  0  0
 13 14  1  0  0  0
 14 15  2  0  0  0
  1  2  1  0  0  0
M  END
> <minimizedAffinity>
-8.93598

$$$$
ZINC000069380275


 23 24  0  0  0  0  0  0  0  0999 V2000
   -6.9459   16.9904  -10.3835 C   0  0  0  0  0  0  0  0  0  0  0  0
   -6.0874   16.5424   -9.6486 O   0  0  0  0  0  0  0  0  0  0  0  0
   -7.3008   16.3157  -11.4949 N   0  0  0  0  0  0  0  0  0  0  0  0
   -8.1774   22.0980   -7.2404 H   0  0  0  0  0  0  0  0  0  0  0  0
   -8.8080   19.6674   -8.5131 C   0  0  0  0  0  0  0  0  0  0  0  0
   -8.8258   20.6880   -9.4541 C   0  0  0  0  0  0  0  0  0  0  0  0
   -8.2353   20.5052  -10.6911 C   0  0  0  0  0  0  0  0  0  0  0  0
   -7.6238   19.3074  -10.9983 C   0  0  0  0  0  0  0  0  0  0  0  0
   -7.6004   18.2752  -10.0582 C   0  0  0  0  0  0  0  0  0  0  0  0
   -8.1920   18.4629   -8.8088 C   0  0  0  0  0  0  0  0  0  0  0  0
   -9.3903   19.8527   -7.2992 O   0  0  0  0  0  0  0  0  0  0  0  0
   -9.6082   21.0997   -5.2405 C   0  0  0  0  0  0  0  0  0  0  0  0
   -9.3268   21.1674   -6.7429 C   0  0  0  0  0  0  0  0  0  0  0  0
   -6.6857   15.1086  -11.8006 C   0  0  0  0  0  0  0  0  0  0  0  0
   -5.8622   14.8833  -12.7963 N   0  0  0  0  0  0  0  0  0  0  0  0
   -5.4832   13.6553  -12.7797 N   0  0  0  0  0  0  0  0  0  0  0  0
   -6.0388   13.0301  -11.7796 C   0  0  0  0  0  0  0  0  0  0  0  0
   -6.8195   13.9346  -11.1181 N   0  0  0  0  0  0  0  0  0  0  0  0
   -8.5569   23.3152  -12.8114 H   0  0  0  0  0  0  0  0  0  0  0  0
   -5.8179   11.3342  -11.3559 S   0  0  0  0  0  0  0  0  0  0  0  0
   -5.7662   11.3237   -9.5427 C   0  0  0  0  0  0  0  0  0  0  0  0
   -6.9996   10.6991  -11.8247 O   0  0  0  0  0  0  0  0  0  0  0  0
   -4.5451   11.0017  -11.8931 O   0  0  0  0  0  0  0  0  0  0  0  0
 12 13  1  0  0  0
 13 11  1  0  0  0
 11  5  1  0  0  0
  5 10  2  0  0  0
  5  6  1  0  0  0
  6  7  2  0  0  0
  7  8  1  0  0  0
  8  9  2  0  0  0
  9  1  1  0  0  0
  9 10  1  0  0  0
  1  2  2  0  0  0
  1  3  1  0  0  0
  3 14  1  0  0  0
 14 18  1  0  0  0
 14 15  2  0  0  0
 15 16  1  0  0  0
 16 17  2  0  0  0
 17 20  1  0  0  0
 17 18  1  0  0  0
 20 21  1  0  0  0
 20 22  2  0  0  0
 20 23  2  0  0  0
  3  4  1  0  0  0
 18 19  1  0  0  0
M  END
> <minimizedAffinity>
-7.49123

$$$$
ZINC000116334711


 31 30  0  0  0  0  0  0  0  0999 V2000
  -10.1828   16.3543   -5.4846 O   0  0  0  0  0  0  0  0  0  0  0  0
   -9.2131   15.4882   -6.0776 C   0  0  0  0  0  0  0  0  0  0  0  0
   -9.3519   15.5339   -7.6005 C   0  0  0  0  0  0  0  0  0  0  0  0
   -8.8267   14.3299   -8.1631 O   0  0  0  0  0  0  0  0  0  0  0  0
   -7.9123   14.5424   -9.2405 C   0  0  0  0  0  0  0  0  0  0  0  0
   -8.5436   14.0600  -10.5480 C   0  0  0  0  0  0  0  0  0  0  0  0
   -7.7764   12.9759  -11.0757 O   0  0  0  0  0  0  0  0  0  0  0  0
   -7.2250   13.2297  -12.3694 C   0  0  0  0  0  0  0  0  0  0  0  0
   -5.7530   13.6226  -12.2282 C   0  0  0  0  0  0  0  0  0  0  0  0
   -5.5198   14.8520  -12.9184 O   0  0  0  0  0  0  0  0  0  0  0  0
   -5.8078   16.0173  -12.1431 C   0  0  0  0  0  0  0  0  0  0  0  0
   -6.1813   17.1710  -13.0761 C   0  0  0  0  0  0  0  0  0  0  0  0
   -6.5199   18.3215  -12.2991 O   0  0  0  0  0  0  0  0  0  0  0  0
   -7.2274   18.0215  -11.0943 C   0  0  0  0  0  0  0  0  0  0  0  0
   -8.6492   20.1283  -10.3585 C   0  0  0  0  0  0  0  0  0  0  0  0
   -8.0184   19.1936  -10.6850 C   0  0  0  0  0  0  0  0  0  0  0  0
   -9.7885   16.8885   -4.2192 C   0  0  0  0  0  0  0  0  0  0  0  0
   -9.1535   18.2656   -4.4225 C   0  0  0  0  0  0  0  0  0  0  0  0
   -9.9158   19.0053   -5.3783 O   0  0  0  0  0  0  0  0  0  0  0  0
   -9.1229   19.6863   -6.3528 C   0  0  0  0  0  0  0  0  0  0  0  0
   -9.5949   21.1368   -6.4712 C   0  0  0  0  0  0  0  0  0  0  0  0
  -10.9115   21.2551   -5.9282 O   0  0  0  0  0  0  0  0  0  0  0  0
  -11.1636   22.5045   -5.2822 C   0  0  0  0  0  0  0  0  0  0  0  0
  -10.5943   22.4687   -3.8626 C   0  0  0  0  0  0  0  0  0  0  0  0
  -11.0592   21.2953   -3.1924 O   0  0  0  0  0  0  0  0  0  0  0  0
  -10.2530   20.9037   -2.0795 C   0  0  0  0  0  0  0  0  0  0  0  0
  -11.1315   20.7750   -0.8335 C   0  0  0  0  0  0  0  0  0  0  0  0
  -10.6263   19.6846    0.0113 N   0  0  0  0  0  0  0  0  0  0  0  0
  -15.9968   18.7083  -22.0409 H   0  0  0  0  0  0  0  0  0  0  0  0
  -15.9968   18.7083  -22.0409 H   0  0  0  0  0  0  0  0  0  0  0  0
  -15.9968   18.7083  -22.0409 H   0  0  0  0  0  0  0  0  0  0  0  0
 15 16  3  0  0  0
 16 14  1  0  0  0
 14 13  1  0  0  0
 13 12  1  0  0  0
 12 11  1  0  0  0
 11 10  1  0  0  0
 10  9  1  0  0  0
  9  8  1  0  0  0
  8  7  1  0  0  0
  7  6  1  0  0  0
  6  5  1  0  0  0
  5  4  1  0  0  0
  4  3  1  0  0  0
  3  2  1  0  0  0
  2  1  1  0  0  0
  1 17  1  0  0  0
 17 18  1  0  0  0
 18 19  1  0  0  0
 19 20  1  0  0  0
 20 21  1  0  0  0
 21 22  1  0  0  0
 22 23  1  0  0  0
 23 24  1  0  0  0
 24 25  1  0  0  0
 25 26  1  0  0  0
 26 27  1  0  0  0
 27 28  1  0  0  0
 28 29  1  0  0  0
 28 30  1  0  0  0
 28 31  1  0  0  0
M  CHG 1  28   1
M  END
> <minimizedAffinity>
-4.33152

$$$$
ZINC000216023597


 25 27  0  0  0  0  0  0  0  0999 V2000
   -7.5785   17.7135   -9.1517 N   0  0  0  0  0  0  0  0  0  0  0  0
   -6.2698   17.5256   -8.5809 C   0  0  0  0  0  0  0  0  0  0  0  0
   -6.2012   16.2904   -7.6533 C   0  0  0  0  0  0  0  0  0  0  0  0
   -7.4796   16.1758   -6.7920 C   0  0  0  0  0  0  0  0  0  0  0  0
   -7.9302   17.4082   -6.3067 O   0  0  0  0  0  0  0  0  0  0  0  0
   -8.9434   18.0045   -7.1472 C   0  0  0  0  0  0  0  0  0  0  0  0
   -8.3498   18.6561   -8.3143 C   0  0  0  0  0  0  0  0  0  0  0  0
   -7.4847   18.1948  -10.5364 C   0  0  0  0  0  0  0  0  0  0  0  0
   -6.7240   15.0925  -12.2956 N   0  0  0  0  0  0  0  0  0  0  0  0
   -7.3539   15.7696  -11.3128 C   0  0  0  0  0  0  0  0  0  0  0  0
   -7.0131   17.0742  -11.4269 C   0  0  0  0  0  0  0  0  0  0  0  0
   -6.1454   17.1986  -12.5166 C   0  0  0  0  0  0  0  0  0  0  0  0
   -5.9665   16.0105  -13.0345 N   0  0  0  0  0  0  0  0  0  0  0  0
   -6.8119   13.6512  -12.5425 C   0  0  0  0  0  0  0  0  0  0  0  0
   -6.9551   12.9132  -11.2098 C   0  0  0  0  0  0  0  0  0  0  0  0
   -8.3584   11.0106  -11.2825 O   0  0  0  0  0  0  0  0  0  0  0  0
   -7.2393   11.4565  -11.4703 C   0  0  0  0  0  0  0  0  0  0  0  0
   -6.3514   10.7247  -11.8736 O   0  0  0  0  0  0  0  0  0  0  0  0
   -8.3558   11.0143  -11.2845 H   0  0  0  0  0  0  0  0  0  0  0  0
   -9.7196   19.0436   -6.3357 C   0  0  0  0  0  0  0  0  0  0  0  0
  -10.3127   18.4014   -5.1600 N   0  0  0  0  0  0  0  0  0  0  0  0
  -10.2153   18.8338   -3.8854 C   0  0  0  0  0  0  0  0  0  0  0  0
  -10.8984   17.9670   -3.1025 C   0  0  0  0  0  0  0  0  0  0  0  0
  -11.4315   16.9708   -3.9269 C   0  0  0  0  0  0  0  0  0  0  0  0
  -11.0861   17.2335   -5.1612 N   0  0  0  0  0  0  0  0  0  0  0  0
 16 17  2  0  0  0
 17 18  1  0  0  0
 17 15  1  0  0  0
 15 14  1  0  0  0
 14  9  1  0  0  0
  9 13  1  0  0  0
  9 10  1  0  0  0
 10 11  2  0  0  0
 11  8  1  0  0  0
 11 12  1  0  0  0
  8  1  1  0  0  0
  1  7  1  0  0  0
  1  2  1  0  0  0
  2  3  1  0  0  0
  3  4  1  0  0  0
  4  5  1  0  0  0
  5  6  1  0  0  0
  6 20  1  0  0  0
  6  7  1  0  0  0
 20 21  1  0  0  0
 21 25  1  0  0  0
 21 22  1  0  0  0
 22 23  2  0  0  0
 23 24  1  0  0  0
 24 25  2  0  0  0
 12 13  2  0  0  0
 18 19  1  0  0  0
M  END
> <minimizedAffinity>
-7.00929

$$$$
ZINC000036386096


 32 33  0  0  0  0  0  0  0  0999 V2000
   -7.3094   16.3590   -8.1083 C   0  0  0  0  0  0  0  0  0  0  0  0
   -6.5100   16.4004   -7.1947 O   0  0  0  0  0  0  0  0  0  0  0  0
   -6.0529   16.1180  -11.5655 N   0  0  0  0  0  0  0  0  0  0  0  0
   -6.1762   14.8006  -11.7902 C   0  0  0  0  0  0  0  0  0  0  0  0
   -5.8411   14.3573  -12.8713 O   0  0  0  0  0  0  0  0  0  0  0  0
   -6.6557   13.9540  -10.8646 N   0  0  0  0  0  0  0  0  0  0  0  0
   -7.0398   14.4009   -9.6510 C   0  0  0  0  0  0  0  0  0  0  0  0
   -7.4737   13.6309   -8.8142 O   0  0  0  0  0  0  0  0  0  0  0  0
   -6.9232   15.8358   -9.3607 C   0  0  0  0  0  0  0  0  0  0  0  0
   -6.4084   16.6702  -10.3680 C   0  0  0  0  0  0  0  0  0  0  0  0
   -6.2768   18.0080  -10.1574 N   0  0  0  0  0  0  0  0  0  0  0  0
  -10.4836   14.2962  -14.4284 H   0  0  0  0  0  0  0  0  0  0  0  0
  -10.4836   14.2962  -14.4284 H   0  0  0  0  0  0  0  0  0  0  0  0
  -10.4836   14.2962  -14.4284 H   0  0  0  0  0  0  0  0  0  0  0  0
   -5.5208   16.9800  -12.6238 C   0  0  0  0  0  0  0  0  0  0  0  0
   -6.6910   18.9260  -13.6660 C   0  0  0  0  0  0  0  0  0  0  0  0
   -6.6569   17.4002  -13.5585 C   0  0  0  0  0  0  0  0  0  0  0  0
   -8.7137   16.8663   -7.9042 C   0  0  0  0  0  0  0  0  0  0  0  0
   -8.6705   18.1632   -7.2154 N   0  0  0  0  0  0  0  0  0  0  0  0
   -9.1564   18.0422   -5.8344 C   0  0  0  0  0  0  0  0  0  0  0  0
   -8.9271   19.3664   -5.0979 C   0  0  0  0  0  0  0  0  0  0  0  0
   -9.5420   20.4489   -5.8809 N   0  0  0  0  0  0  0  0  0  0  0  0
   -9.2083   20.5504   -7.3097 C   0  0  0  0  0  0  0  0  0  0  0  0
   -9.4265   19.1797   -7.9591 C   0  0  0  0  0  0  0  0  0  0  0  0
  -10.5819   21.5255   -5.1724 S   0  0  0  0  0  0  0  0  0  0  0  0
  -11.4480   21.9836   -6.2017 O   0  0  0  0  0  0  0  0  0  0  0  0
  -11.0493   20.9073   -3.9814 O   0  0  0  0  0  0  0  0  0  0  0  0
   -9.6849   22.8345   -4.6989 N   0  0  0  0  0  0  0  0  0  0  0  0
   -8.8272   23.5233   -5.6665 C   0  0  0  0  0  0  0  0  0  0  0  0
   -9.4189   24.8978   -5.9847 C   0  0  0  0  0  0  0  0  0  0  0  0
   -9.7491   23.3037   -3.3127 C   0  0  0  0  0  0  0  0  0  0  0  0
   -8.4663   22.9059   -2.5797 C   0  0  0  0  0  0  0  0  0  0  0  0
 16 17  1  0  0  0
 17 15  1  0  0  0
 15  3  1  0  0  0
  3 10  1  0  0  0
  3  4  1  0  0  0
  4  5  2  0  0  0
  4  6  1  0  0  0
  6  7  1  0  0  0
  7  8  2  0  0  0
  7  9  1  0  0  0
  9  1  1  0  0  0
  9 10  2  0  0  0
  1  2  2  0  0  0
  1 18  1  0  0  0
 18 19  1  0  0  0
 19 24  1  0  0  0
 19 20  1  0  0  0
 20 21  1  0  0  0
 21 22  1  0  0  0
 22 25  1  0  0  0
 22 23  1  0  0  0
 25 26  2  0  0  0
 25 27  2  0  0  0
 25 28  1  0  0  0
 28 29  1  0  0  0
 28 31  1  0  0  0
 29 30  1  0  0  0
 31 32  1  0  0  0
 23 24  1  0  0  0
 10 11  1  0  0  0
  6 12  1  0  0  0
 11 13  1  0  0  0
 11 14  1  0  0  0
M  END
> <minimizedAffinity>
-7.02002

$$$$
ZINC000225543858


 25 26  0  0  0  0  0  0  0  0999 V2000
   -7.7207   18.7110   -9.8177 C   0  0  0  0  0  0  0  0  0  0  0  0
   -6.7203   18.9337   -9.1691 O   0  0  0  0  0  0  0  0  0  0  0  0
   -8.9332   19.0096   -9.3102 N   0  0  0  0  0  0  0  0  0  0  0  0
   -5.3049   18.7679  -12.1685 H   0  0  0  0  0  0  0  0  0  0  0  0
   -9.0451   19.4860   -7.9974 C   0  0  0  0  0  0  0  0  0  0  0  0
   -8.9171   18.6105   -6.9276 C   0  0  0  0  0  0  0  0  0  0  0  0
   -9.0270   19.0810   -5.6338 C   0  0  0  0  0  0  0  0  0  0  0  0
   -9.2656   20.4277   -5.4032 C   0  0  0  0  0  0  0  0  0  0  0  0
   -9.3742   20.8901   -4.1291 O   0  0  0  0  0  0  0  0  0  0  0  0
   -9.3932   21.3033   -6.4719 C   0  0  0  0  0  0  0  0  0  0  0  0
   -9.2783   20.8352   -7.7657 C   0  0  0  0  0  0  0  0  0  0  0  0
   -9.2216   14.7282  -11.0362 H   0  0  0  0  0  0  0  0  0  0  0  0
   -9.6520   22.7664   -6.2203 C   0  0  0  0  0  0  0  0  0  0  0  0
   -9.7475   23.4401   -7.4426 F   0  0  0  0  0  0  0  0  0  0  0  0
  -10.8496   22.9131   -5.5120 F   0  0  0  0  0  0  0  0  0  0  0  0
   -8.5991   23.3044   -5.4724 F   0  0  0  0  0  0  0  0  0  0  0  0
   -7.6082   18.1006  -11.1910 C   0  0  0  0  0  0  0  0  0  0  0  0
   -8.0987   15.4414   -9.5386 C   0  0  0  0  0  0  0  0  0  0  0  0
   -6.9023   15.7356  -10.4064 C   0  0  0  0  0  0  0  0  0  0  0  0
   -5.8877   14.9352  -10.6109 N   0  0  0  0  0  0  0  0  0  0  0  0
   -4.9912   15.5772  -11.4751 N   0  0  0  0  0  0  0  0  0  0  0  0
   -5.5034   16.7877  -11.7805 C   0  0  0  0  0  0  0  0  0  0  0  0
   -4.8725   17.8178  -12.6816 C   0  0  0  0  0  0  0  0  0  0  0  0
   -6.6876   16.9088  -11.1370 C   0  0  0  0  0  0  0  0  0  0  0  0
   -6.9007   15.7393  -10.3975 H   0  0  0  0  0  0  0  0  0  0  0  0
 18 19  1  0  0  0
 19 24  1  0  0  0
 19 20  2  0  0  0
 20 21  1  0  0  0
 21 22  1  0  0  0
 22 23  1  0  0  0
 22 24  2  0  0  0
 24 17  1  0  0  0
 17  1  1  0  0  0
  1  2  2  0  0  0
  1  3  1  0  0  0
  3  5  1  0  0  0
  5 11  1  0  0  0
  5  6  2  0  0  0
  6  7  1  0  0  0
  7  8  2  0  0  0
  8  9  1  0  0  0
  8 10  1  0  0  0
 10 13  1  0  0  0
 10 11  2  0  0  0
 13 14  1  0  0  0
 13 15  1  0  0  0
 13 16  1  0  0  0
 21 25  1  0  0  0
  3  4  1  0  0  0
  9 12  1  0  0  0
M  END
> <minimizedAffinity>
-7.06500

$$$$
ZINC000585283773


 29 30  0  0  0  0  0  0  0  0999 V2000
   -6.7360   15.0600   -8.2623 C   0  0  0  0  0  0  0  0  0  0  0  0
   -7.1092   13.8286   -9.0903 C   0  0  0  0  0  0  0  0  0  0  0  0
   -5.9268   13.0826   -9.4018 O   0  0  0  0  0  0  0  0  0  0  0  0
   -6.2073   11.8218  -10.0147 C   0  0  0  0  0  0  0  0  0  0  0  0
   -7.1689   12.0123  -11.1546 C   0  0  0  0  0  0  0  0  0  0  0  0
   -7.2975   11.1205  -11.9666 O   0  0  0  0  0  0  0  0  0  0  0  0
   -7.8886   13.1310  -11.3049 N   0  0  0  0  0  0  0  0  0  0  0  0
   -7.7724   14.2702  -10.3967 C   0  0  0  0  0  0  0  0  0  0  0  0
   -5.4305   14.1327   -2.6001 H   0  0  0  0  0  0  0  0  0  0  0  0
   -6.9284   15.3397  -11.0408 C   0  0  0  0  0  0  0  0  0  0  0  0
   -7.4244   16.6228  -11.1775 C   0  0  0  0  0  0  0  0  0  0  0  0
   -6.6502   17.6038  -11.7683 C   0  0  0  0  0  0  0  0  0  0  0  0
   -5.3799   17.3019  -12.2221 C   0  0  0  0  0  0  0  0  0  0  0  0
   -4.8835   16.0191  -12.0847 C   0  0  0  0  0  0  0  0  0  0  0  0
   -5.6560   15.0391  -11.4900 C   0  0  0  0  0  0  0  0  0  0  0  0
   -8.0387   16.9959   -7.5605 C   0  0  0  0  0  0  0  0  0  0  0  0
   -7.1127   17.7038   -7.8958 O   0  0  0  0  0  0  0  0  0  0  0  0
   -7.9505   15.6586   -7.7028 N   0  0  0  0  0  0  0  0  0  0  0  0
  -11.6509   18.1973   -7.4712 H   0  0  0  0  0  0  0  0  0  0  0  0
   -9.2879   17.6116   -6.9849 C   0  0  0  0  0  0  0  0  0  0  0  0
  -10.2008   16.5476   -6.5460 N   0  0  0  0  0  0  0  0  0  0  0  0
  -10.1475   19.2042   -5.2855 H   0  0  0  0  0  0  0  0  0  0  0  0
  -10.1475   19.2042   -5.2855 H   0  0  0  0  0  0  0  0  0  0  0  0
   -8.9184   18.4919   -5.7894 C   0  0  0  0  0  0  0  0  0  0  0  0
   -9.6332   20.7535   -5.0871 N   0  0  0  0  0  0  0  0  0  0  0  0
   -9.2805   19.9238   -6.0890 C   0  0  0  0  0  0  0  0  0  0  0  0
   -9.2545   20.3296   -7.2316 O   0  0  0  0  0  0  0  0  0  0  0  0
   -9.2832   19.9243   -6.0848 H   0  0  0  0  0  0  0  0  0  0  0  0
   -9.2832   19.9243   -6.0848 H   0  0  0  0  0  0  0  0  0  0  0  0
 25 26  1  0  0  0
 26 27  2  0  0  0
 26 24  1  0  0  0
 24 20  1  0  0  0
 20 21  1  0  0  0
 20 16  1  0  0  0
 16 17  2  0  0  0
 16 18  1  0  0  0
 18  1  1  0  0  0
  1  2  1  0  0  0
  2  8  1  0  0  0
  2  3  1  0  0  0
  3  4  1  0  0  0
  4  5  1  0  0  0
  5  6  2  0  0  0
  5  7  1  0  0  0
  7  8  1  0  0  0
  8 10  1  0  0  0
 10 15  1  0  0  0
 10 11  2  0  0  0
 11 12  1  0  0  0
 12 13  2  0  0  0
 13 14  1  0  0  0
 14 15  2  0  0  0
 25 28  1  0  0  0
 25 29  1  0  0  0
 21 22  1  0  0  0
 21 23  1  0  0  0
 18 19  1  0  0  0
  7  9  1  0  0  0
M  END
> <minimizedAffinity>
-7.39673

$$$$
ZINC000073373064


 27 28  0  0  0  0  0  0  0  0999 V2000
   -8.5280   17.1544   -6.3513 N   0  0  0  0  0  0  0  0  0  0  0  0
   -8.3153   16.7793   -7.6568 C   0  0  0  0  0  0  0  0  0  0  0  0
   -9.9855   17.3546   -4.3458 H   0  0  0  0  0  0  0  0  0  0  0  0
   -7.6815   17.6375   -8.5241 N   0  0  0  0  0  0  0  0  0  0  0  0
  -11.5116   14.8355   -7.9538 H   0  0  0  0  0  0  0  0  0  0  0  0
   -8.4560   18.3610   -9.5354 C   0  0  0  0  0  0  0  0  0  0  0  0
   -7.5241   19.2743  -10.3344 C   0  0  0  0  0  0  0  0  0  0  0  0
   -8.0086   20.7213  -10.2222 C   0  0  0  0  0  0  0  0  0  0  0  0
   -7.5283   18.8475  -11.8037 C   0  0  0  0  0  0  0  0  0  0  0  0
   -6.7097   17.6433  -11.9646 N   0  0  0  0  0  0  0  0  0  0  0  0
   -5.4254   17.4986  -11.5767 C   0  0  0  0  0  0  0  0  0  0  0  0
   -5.0348   16.2447  -11.9028 C   0  0  0  0  0  0  0  0  0  0  0  0
   -6.1175   15.6011  -12.5109 C   0  0  0  0  0  0  0  0  0  0  0  0
   -7.1240   16.4365  -12.5430 N   0  0  0  0  0  0  0  0  0  0  0  0
   -8.7146   15.6103   -8.0723 N   0  0  0  0  0  0  0  0  0  0  0  0
   -4.9873   17.3996   -9.2766 H   0  0  0  0  0  0  0  0  0  0  0  0
   -8.1246   15.0199   -9.2763 C   0  0  0  0  0  0  0  0  0  0  0  0
   -7.0041   14.0580   -8.8761 C   0  0  0  0  0  0  0  0  0  0  0  0
   -6.6797   13.1846  -10.0118 N   0  0  0  0  0  0  0  0  0  0  0  0
   -7.8853   12.8606  -10.7884 C   0  0  0  0  0  0  0  0  0  0  0  0
   -7.4940   12.0003  -11.9929 C   0  0  0  0  0  0  0  0  0  0  0  0
   -6.8140   10.8286  -11.5346 O   0  0  0  0  0  0  0  0  0  0  0  0
   -5.6346   11.1074  -10.7751 C   0  0  0  0  0  0  0  0  0  0  0  0
   -6.0071   11.9586   -9.5583 C   0  0  0  0  0  0  0  0  0  0  0  0
   -8.2436   18.5278   -5.9282 C   0  0  0  0  0  0  0  0  0  0  0  0
   -9.4364   20.5269   -6.6646 C   0  0  0  0  0  0  0  0  0  0  0  0
   -9.4900   19.3638   -6.0643 C   0  0  0  0  0  0  0  0  0  0  0  0
 26 27  2  0  0  0
 27 25  1  0  0  0
 25  1  1  0  0  0
  1  2  2  0  0  0
  2  4  1  0  0  0
  2 15  1  0  0  0
  4  6  1  0  0  0
  6  7  1  0  0  0
  7  8  1  0  0  0
  7  9  1  0  0  0
  9 10  1  0  0  0
 10 14  1  0  0  0
 10 11  1  0  0  0
 11 12  2  0  0  0
 12 13  1  0  0  0
 13 14  2  0  0  0
 15 17  1  0  0  0
 17 18  1  0  0  0
 18 19  1  0  0  0
 19 24  1  0  0  0
 19 20  1  0  0  0
 20 21  1  0  0  0
 21 22  1  0  0  0
 22 23  1  0  0  0
 23 24  1  0  0  0
  1  3  1  0  0  0
  4  5  1  0  0  0
 15 16  1  0  0  0
M  CHG 1   1   1
M  END
> <minimizedAffinity>
-5.63793

$$$$
ZINC000019594576


 28 28  0  0  0  0  0  0  0  0999 V2000
   -7.1459   13.7969  -11.5845 C   0  0  0  0  0  0  0  0  0  0  0  0
   -8.3770   14.2276  -12.2604 N   0  0  0  0  0  0  0  0  0  0  0  0
   -9.6561   13.3891   -5.9297 H   0  0  0  0  0  0  0  0  0  0  0  0
   -9.6561   13.3891   -5.9297 H   0  0  0  0  0  0  0  0  0  0  0  0
   -9.6561   13.3891   -5.9297 H   0  0  0  0  0  0  0  0  0  0  0  0
   -5.9557   14.4330  -12.2553 C   0  0  0  0  0  0  0  0  0  0  0  0
   -5.4297   13.8876  -13.1964 O   0  0  0  0  0  0  0  0  0  0  0  0
   -5.4799   15.6054  -11.8072 O   0  0  0  0  0  0  0  0  0  0  0  0
   -5.3591   16.6810  -12.7751 C   0  0  0  0  0  0  0  0  0  0  0  0
   -6.3395   17.7742  -12.4362 C   0  0  0  0  0  0  0  0  0  0  0  0
   -6.7148   18.6897  -13.4016 C   0  0  0  0  0  0  0  0  0  0  0  0
   -7.6141   19.6924  -13.0908 C   0  0  0  0  0  0  0  0  0  0  0  0
   -8.1385   19.7793  -11.8147 C   0  0  0  0  0  0  0  0  0  0  0  0
   -7.7640   18.8632  -10.8496 C   0  0  0  0  0  0  0  0  0  0  0  0
   -6.8679   17.8580  -11.1616 C   0  0  0  0  0  0  0  0  0  0  0  0
   -7.1934   14.2254  -10.1166 C   0  0  0  0  0  0  0  0  0  0  0  0
   -8.6027   14.7115   -9.7724 C   0  0  0  0  0  0  0  0  0  0  0  0
   -8.5316   15.6946   -8.6022 C   0  0  0  0  0  0  0  0  0  0  0  0
   -8.7745   14.9786   -7.3475 N   0  0  0  0  0  0  0  0  0  0  0  0
   -9.2635   15.6469   -6.2766 H   0  0  0  0  0  0  0  0  0  0  0  0
   -8.8962   15.3359   -5.0420 N   0  0  0  0  0  0  0  0  0  0  0  0
   -9.3077   15.6284   -6.2926 C   0  0  0  0  0  0  0  0  0  0  0  0
  -10.2512   16.5695   -6.4883 N   0  0  0  0  0  0  0  0  0  0  0  0
   -9.3418   15.5925   -6.2827 H   0  0  0  0  0  0  0  0  0  0  0  0
   -9.3418   15.5925   -6.2827 H   0  0  0  0  0  0  0  0  0  0  0  0
  -10.6944   17.2559   -5.4900 N   0  0  0  0  0  0  0  0  0  0  0  0
  -10.0654   18.2169   -5.0847 O   0  0  0  0  0  0  0  0  0  0  0  0
  -11.7417   16.9429   -4.9527 O   0  0  0  0  0  0  0  0  0  0  0  0
 21 22  1  0  0  0
 22 23  2  0  0  0
 22 19  1  0  0  0
 23 26  1  0  0  0
 26 27  1  0  0  0
 26 28  2  0  0  0
 19 18  1  0  0  0
 18 17  1  0  0  0
 17 16  1  0  0  0
 16  1  1  0  0  0
  1  2  1  0  0  0
  1  6  1  0  0  0
  6  7  2  0  0  0
  6  8  1  0  0  0
  8  9  1  0  0  0
  9 10  1  0  0  0
 10 15  2  0  0  0
 10 11  1  0  0  0
 11 12  2  0  0  0
 12 13  1  0  0  0
 13 14  2  0  0  0
 14 15  1  0  0  0
 21 24  1  0  0  0
 21 25  1  0  0  0
 19 20  1  0  0  0
  2  3  1  0  0  0
  2  4  1  0  0  0
  2  5  1  0  0  0
M  CHG 1   2   1
M  CHG 1  26   1
M  CHG 1  27  -1
M  END
> <minimizedAffinity>
-6.64070

$$$$
ZINC000017028231


 26 28  0  0  0  0  0  0  0  0999 V2000
   -7.8930   18.5372   -9.5248 C   0  0  0  0  0  0  0  0  0  0  0  0
   -7.8756   19.4328  -10.6826 C   0  0  0  0  0  0  0  0  0  0  0  0
   -7.3696   18.7212  -11.7219 C   0  0  0  0  0  0  0  0  0  0  0  0
   -7.0718   17.3787  -11.2081 C   0  0  0  0  0  0  0  0  0  0  0  0
   -7.4015   17.3424   -9.9007 O   0  0  0  0  0  0  0  0  0  0  0  0
   -6.5363   16.3261  -11.9423 C   0  0  0  0  0  0  0  0  0  0  0  0
   -6.5761   15.0267  -11.4313 C   0  0  0  0  0  0  0  0  0  0  0  0
   -7.1051   14.6224  -10.2419 N   0  0  0  0  0  0  0  0  0  0  0  0
   -6.9405   13.2941  -10.1294 C   0  0  0  0  0  0  0  0  0  0  0  0
   -7.3091   12.6362   -9.1770 O   0  0  0  0  0  0  0  0  0  0  0  0
   -6.3171   12.7864  -11.2047 N   0  0  0  0  0  0  0  0  0  0  0  0
   -6.0542   13.7845  -12.0751 C   0  0  0  0  0  0  0  0  0  0  0  0
   -5.5021   13.6925  -13.1518 O   0  0  0  0  0  0  0  0  0  0  0  0
  -10.3153   17.0347   -8.7492 H   0  0  0  0  0  0  0  0  0  0  0  0
  -10.3153   17.0347   -8.7492 H   0  0  0  0  0  0  0  0  0  0  0  0
   -8.1777   17.9611   -7.1565 C   0  0  0  0  0  0  0  0  0  0  0  0
   -8.6278   18.3107   -5.8924 C   0  0  0  0  0  0  0  0  0  0  0  0
   -9.2370   19.5333   -5.6889 C   0  0  0  0  0  0  0  0  0  0  0  0
   -9.4064   20.4266   -6.7431 C   0  0  0  0  0  0  0  0  0  0  0  0
   -8.9743   20.1115   -7.9956 C   0  0  0  0  0  0  0  0  0  0  0  0
   -8.3438   18.8721   -8.2313 C   0  0  0  0  0  0  0  0  0  0  0  0
  -10.0619   21.7314   -6.5002 N   0  0  0  0  0  0  0  0  0  0  0  0
   -9.4125   22.8504   -6.7459 O   0  0  0  0  0  0  0  0  0  0  0  0
  -11.2946   21.7730   -6.0384 O   0  0  0  0  0  0  0  0  0  0  0  0
   -8.2568   15.6079   -6.8645 C   0  0  0  0  0  0  0  0  0  0  0  0
   -7.5805   16.7644   -7.3619 O   0  0  0  0  0  0  0  0  0  0  0  0
 25 26  1  0  0  0
 26 16  1  0  0  0
 16 21  2  0  0  0
 16 17  1  0  0  0
 17 18  2  0  0  0
 18 19  1  0  0  0
 19 22  1  0  0  0
 19 20  2  0  0  0
 22 23  1  0  0  0
 22 24  2  0  0  0
 20 21  1  0  0  0
 21  1  1  0  0  0
  1  5  1  0  0  0
  1  2  2  0  0  0
  2  3  1  0  0  0
  3  4  2  0  0  0
  4  6  1  0  0  0
  4  5  1  0  0  0
  6  7  2  0  0  0
  7 12  1  0  0  0
  7  8  1  0  0  0
  8  9  1  0  0  0
  9 10  2  0  0  0
  9 11  1  0  0  0
 11 12  1  0  0  0
 12 13  2  0  0  0
  8 14  1  0  0  0
 11 15  1  0  0  0
M  CHG 1  22   1
M  CHG 1  23  -1
M  END
> <minimizedAffinity>
-8.65777

$$$$
ZINC000015864501


 21 23  0  0  0  0  0  0  0  0999 V2000
   -7.7114   15.1832  -12.9110 O   0  0  0  0  0  0  0  0  0  0  0  0
   -6.7264   15.2176  -12.1970 C   0  0  0  0  0  0  0  0  0  0  0  0
   -6.0266   16.3624  -12.0690 N   0  0  0  0  0  0  0  0  0  0  0  0
   -7.7940   15.2260  -12.7848 H   0  0  0  0  0  0  0  0  0  0  0  0
   -6.6127   17.5807  -12.4142 C   0  0  0  0  0  0  0  0  0  0  0  0
   -6.4943   18.0609  -13.6836 C   0  0  0  0  0  0  0  0  0  0  0  0
   -7.0682   19.2734  -14.0595 C   0  0  0  0  0  0  0  0  0  0  0  0
   -7.7701   20.0313  -13.1815 C   0  0  0  0  0  0  0  0  0  0  0  0
   -7.9356   19.5960  -11.8417 C   0  0  0  0  0  0  0  0  0  0  0  0
   -8.5669   20.1523  -10.8204 N   0  0  0  0  0  0  0  0  0  0  0  0
   -8.4323   19.2376   -9.5696 S   0  0  0  0  0  0  0  0  0  0  0  0
   -7.5875   18.0765  -10.1675 N   0  0  0  0  0  0  0  0  0  0  0  0
   -7.3412   18.3235  -11.4429 C   0  0  0  0  0  0  0  0  0  0  0  0
   -6.3044   14.0155  -11.4714 C   0  0  0  0  0  0  0  0  0  0  0  0
   -6.2998   13.8572  -10.1149 C   0  0  0  0  0  0  0  0  0  0  0  0
   -5.8243   12.5612   -9.8615 C   0  0  0  0  0  0  0  0  0  0  0  0
   -5.5629   11.9923  -11.0591 C   0  0  0  0  0  0  0  0  0  0  0  0
   -5.8581   12.8699  -12.0268 O   0  0  0  0  0  0  0  0  0  0  0  0
   -5.0412   10.6226  -11.2673 N   0  0  0  0  0  0  0  0  0  0  0  0
   -4.1516   10.4262  -12.0758 O   0  0  0  0  0  0  0  0  0  0  0  0
   -5.5015    9.6923  -10.6301 O   0  0  0  0  0  0  0  0  0  0  0  0
  1  2  2  0  0  0
  2  3  1  0  0  0
  2 14  1  0  0  0
  3  5  1  0  0  0
  5 13  1  0  0  0
  5  6  2  0  0  0
  6  7  1  0  0  0
  7  8  2  0  0  0
  8  9  1  0  0  0
  9 13  1  0  0  0
  9 10  2  0  0  0
 10 11  1  0  0  0
 11 12  1  0  0  0
 12 13  2  0  0  0
 14 18  1  0  0  0
 14 15  2  0  0  0
 15 16  1  0  0  0
 16 17  2  0  0  0
 17 19  1  0  0  0
 17 18  1  0  0  0
 19 20  1  0  0  0
 19 21  2  0  0  0
  3  4  1  0  0  0
M  CHG 1  19   1
M  CHG 1  20  -1
M  END
> <minimizedAffinity>
-7.89129

$$$$
ZINC000004545954


 34 34  0  0  0  0  0  0  0  0999 V2000
   -9.6057   16.9103   -6.3480 C   0  0  0  0  0  0  0  0  0  0  0  0
  -10.9707   16.6011   -4.3533 C   0  0  0  0  0  0  0  0  0  0  0  0
  -11.9061   17.0862   -4.9540 O   0  0  0  0  0  0  0  0  0  0  0  0
   -9.7753   16.4685   -4.9615 N   0  0  0  0  0  0  0  0  0  0  0  0
  -11.1425   16.1501   -2.9246 H   0  0  0  0  0  0  0  0  0  0  0  0
  -12.3622   16.7487   -2.3667 N   0  0  0  0  0  0  0  0  0  0  0  0
  -11.1451   16.1466   -2.9272 C   0  0  0  0  0  0  0  0  0  0  0  0
  -11.1414   16.1492   -2.9248 H   0  0  0  0  0  0  0  0  0  0  0  0
  -11.1414   16.1492   -2.9248 H   0  0  0  0  0  0  0  0  0  0  0  0
   -9.1777   15.7423   -7.1985 C   0  0  0  0  0  0  0  0  0  0  0  0
   -9.4758   14.6130   -6.8721 O   0  0  0  0  0  0  0  0  0  0  0  0
   -8.4635   15.9528   -8.3220 N   0  0  0  0  0  0  0  0  0  0  0  0
  -11.7289   15.0850   -3.7366 H   0  0  0  0  0  0  0  0  0  0  0  0
   -7.9832   14.8651   -9.0597 C   0  0  0  0  0  0  0  0  0  0  0  0
   -6.7961   14.2451   -8.6925 C   0  0  0  0  0  0  0  0  0  0  0  0
   -6.3246   13.1718   -9.4227 C   0  0  0  0  0  0  0  0  0  0  0  0
   -7.0334   12.7144  -10.5184 C   0  0  0  0  0  0  0  0  0  0  0  0
   -8.2160   13.3292  -10.8864 C   0  0  0  0  0  0  0  0  0  0  0  0
   -8.6955   14.3997  -10.1572 C   0  0  0  0  0  0  0  0  0  0  0  0
   -6.5253   11.5638  -11.2988 N   0  0  0  0  0  0  0  0  0  0  0  0
   -5.3258   11.4046  -11.4383 O   0  0  0  0  0  0  0  0  0  0  0  0
   -7.3066   10.7762  -11.8014 O   0  0  0  0  0  0  0  0  0  0  0  0
   -8.5370   18.0036   -6.4077 C   0  0  0  0  0  0  0  0  0  0  0  0
   -9.2055   19.3574   -6.6546 C   0  0  0  0  0  0  0  0  0  0  0  0
   -9.1989   19.6637   -8.1536 C   0  0  0  0  0  0  0  0  0  0  0  0
   -8.0070   19.0734   -8.7674 N   0  0  0  0  0  0  0  0  0  0  0  0
   -7.8120   19.1739  -10.1177 C   0  0  0  0  0  0  0  0  0  0  0  0
   -8.7059   19.8084  -10.8743 N   0  0  0  0  0  0  0  0  0  0  0  0
   -6.7282   18.6372  -10.6758 N   0  0  0  0  0  0  0  0  0  0  0  0
  -11.6856   16.1726   -4.3964 H   0  0  0  0  0  0  0  0  0  0  0  0
  -11.6856   16.1726   -4.3964 H   0  0  0  0  0  0  0  0  0  0  0  0
  -11.6856   16.1726   -4.3964 H   0  0  0  0  0  0  0  0  0  0  0  0
  -11.6856   16.1726   -4.3964 H   0  0  0  0  0  0  0  0  0  0  0  0
  -11.6856   16.1726   -4.3964 H   0  0  0  0  0  0  0  0  0  0  0  0
  6  7  1  0  0  0
  7  2  1  0  0  0
  2  3  2  0  0  0
  2  4  1  0  0  0
  4  1  1  0  0  0
  1 23  1  0  0  0
  1 10  1  0  0  0
 23 24  1  0  0  0
 24 25  1  0  0  0
 25 26  1  0  0  0
 26 27  2  0  0  0
 27 28  1  0  0  0
 27 29  1  0  0  0
 10 11  2  0  0  0
 10 12  1  0  0  0
 12 14  1  0  0  0
 14 19  2  0  0  0
 14 15  1  0  0  0
 15 16  2  0  0  0
 16 17  1  0  0  0
 17 20  1  0  0  0
 17 18  2  0  0  0
 20 21  1  0  0  0
 20 22  2  0  0  0
 18 19  1  0  0  0
  6  8  1  0  0  0
  6  9  1  0  0  0
  4  5  1  0  0  0
 26 30  1  0  0  0
 28 31  1  0  0  0
 28 32  1  0  0  0
 29 33  1  0  0  0
 29 34  1  0  0  0
 12 13  1  0  0  0
M  CHG 1  20   1
M  CHG 1  21  -1
M  CHG 1  26   1
M  END
> <minimizedAffinity>
-7.15024

$$$$
ZINC000044171185


 32 34  0  0  0  0  0  0  0  0999 V2000
   -7.7336   14.3244   -9.7658 C   0  0  0  0  0  0  0  0  0  0  0  0
   -8.2575   14.6928   -8.4713 O   0  0  0  0  0  0  0  0  0  0  0  0
   -8.6259   16.0840   -8.5918 C   0  0  0  0  0  0  0  0  0  0  0  0
   -7.4891   16.7231   -9.4197 C   0  0  0  0  0  0  0  0  0  0  0  0
   -6.8891   15.5382  -10.2127 C   0  0  0  0  0  0  0  0  0  0  0  0
   -8.7080   16.7065   -7.2682 N   0  0  0  0  0  0  0  0  0  0  0  0
   -8.4288   18.0108   -6.9704 C   0  0  0  0  0  0  0  0  0  0  0  0
   -8.6052   18.2254   -5.7009 N   0  0  0  0  0  0  0  0  0  0  0  0
   -9.0086   17.0748   -5.1013 C   0  0  0  0  0  0  0  0  0  0  0  0
   -9.3375   16.7209   -3.7906 C   0  0  0  0  0  0  0  0  0  0  0  0
   -9.2858   17.6438   -2.7823 N   0  0  0  0  0  0  0  0  0  0  0  0
   -9.7121   15.4327   -3.5399 N   0  0  0  0  0  0  0  0  0  0  0  0
   -9.7609   14.5313   -4.5365 C   0  0  0  0  0  0  0  0  0  0  0  0
  -10.0994   13.3859   -4.2840 O   0  0  0  0  0  0  0  0  0  0  0  0
   -9.4521   14.8515   -5.7871 N   0  0  0  0  0  0  0  0  0  0  0  0
   -9.0839   16.0890   -6.1058 C   0  0  0  0  0  0  0  0  0  0  0  0
   -4.0116   16.5590  -11.7074 H   0  0  0  0  0  0  0  0  0  0  0  0
   -4.0116   16.5590  -11.7074 H   0  0  0  0  0  0  0  0  0  0  0  0
   -4.0116   16.5590  -11.7074 H   0  0  0  0  0  0  0  0  0  0  0  0
   -6.8544   13.0777   -9.6494 C   0  0  0  0  0  0  0  0  0  0  0  0
   -7.5823   11.9239  -10.1466 O   0  0  0  0  0  0  0  0  0  0  0  0
   -8.3049   12.5976  -12.4093 C   0  0  0  0  0  0  0  0  0  0  0  0
   -7.5407   11.7008  -11.4696 C   0  0  0  0  0  0  0  0  0  0  0  0
   -6.8905   10.7812  -11.9070 O   0  0  0  0  0  0  0  0  0  0  0  0
   -8.0210   17.7253  -10.3258 O   0  0  0  0  0  0  0  0  0  0  0  0
   -7.5116   18.9636  -10.2318 C   0  0  0  0  0  0  0  0  0  0  0  0
   -8.3920   20.1614  -10.4796 C   0  0  0  0  0  0  0  0  0  0  0  0
   -6.3472   19.1180   -9.9483 O   0  0  0  0  0  0  0  0  0  0  0  0
   -7.0237   15.7617  -11.6411 O   0  0  0  0  0  0  0  0  0  0  0  0
   -5.8923   15.7906  -12.3627 C   0  0  0  0  0  0  0  0  0  0  0  0
   -5.1913   17.1009  -12.6128 C   0  0  0  0  0  0  0  0  0  0  0  0
   -5.4358   14.7659  -12.8117 O   0  0  0  0  0  0  0  0  0  0  0  0
 22 23  1  0  0  0
 23 24  2  0  0  0
 23 21  1  0  0  0
 21 20  1  0  0  0
 20  1  1  0  0  0
  1  5  1  0  0  0
  1  2  1  0  0  0
  2  3  1  0  0  0
  3  6  1  0  0  0
  3  4  1  0  0  0
  6 16  1  0  0  0
  6  7  1  0  0  0
  7  8  2  0  0  0
  8  9  1  0  0  0
  9 16  1  0  0  0
  9 10  2  0  0  0
 10 11  1  0  0  0
 10 12  1  0  0  0
 12 13  1  0  0  0
 13 14  2  0  0  0
 13 15  1  0  0  0
 15 16  2  0  0  0
  4 25  1  0  0  0
  4  5  1  0  0  0
 25 26  1  0  0  0
 26 27  1  0  0  0
 26 28  2  0  0  0
  5 29  1  0  0  0
 29 30  1  0  0  0
 30 31  1  0  0  0
 30 32  2  0  0  0
 11 17  1  0  0  0
 11 18  1  0  0  0
 12 19  1  0  0  0
M  END
> <minimizedAffinity>
-7.96143

$$$$
ZINC000035968900


 33 35  0  0  0  0  0  0  0  0999 V2000
   -7.5205   18.4512   -9.6447 N   0  0  0  0  0  0  0  0  0  0  0  0
   -7.2924   17.2474   -9.0413 C   0  0  0  0  0  0  0  0  0  0  0  0
   -8.1745   16.7272   -8.1640 C   0  0  0  0  0  0  0  0  0  0  0  0
   -7.7135   15.4843   -7.6838 C   0  0  0  0  0  0  0  0  0  0  0  0
   -8.3114   14.7926   -6.8797 O   0  0  0  0  0  0  0  0  0  0  0  0
   -6.5272   15.1619   -8.2303 N   0  0  0  0  0  0  0  0  0  0  0  0
   -6.1559   16.2549   -9.1413 C   0  0  0  0  0  0  0  0  0  0  0  0
   -9.4287   17.5248   -7.8691 C   0  0  0  0  0  0  0  0  0  0  0  0
   -9.5812   18.8108   -8.5703 N   0  0  0  0  0  0  0  0  0  0  0  0
   -8.6082   19.1992   -9.4182 C   0  0  0  0  0  0  0  0  0  0  0  0
   -8.7250   20.2592  -10.0016 O   0  0  0  0  0  0  0  0  0  0  0  0
   -5.4967   19.7843   -9.8444 H   0  0  0  0  0  0  0  0  0  0  0  0
   -9.4690   17.7965   -6.3874 C   0  0  0  0  0  0  0  0  0  0  0  0
   -8.6079   18.7241   -5.8314 C   0  0  0  0  0  0  0  0  0  0  0  0
   -8.6444   18.9738   -4.4725 C   0  0  0  0  0  0  0  0  0  0  0  0
   -9.5430   18.2952   -3.6687 C   0  0  0  0  0  0  0  0  0  0  0  0
   -9.5898   18.6087   -1.9618 Cl  0  0  0  0  0  0  0  0  0  0  0  0
  -10.4045   17.3670   -4.2256 C   0  0  0  0  0  0  0  0  0  0  0  0
  -10.3710   17.1224   -5.5856 C   0  0  0  0  0  0  0  0  0  0  0  0
   -6.5178   18.9545  -10.5868 C   0  0  0  0  0  0  0  0  0  0  0  0
   -5.6443   17.8513  -12.5821 C   0  0  0  0  0  0  0  0  0  0  0  0
   -6.6928   18.2719  -11.9189 C   0  0  0  0  0  0  0  0  0  0  0  0
   -5.7501   13.9482   -7.9670 C   0  0  0  0  0  0  0  0  0  0  0  0
   -6.1356   12.8801   -8.9577 C   0  0  0  0  0  0  0  0  0  0  0  0
   -6.7960   11.9288   -8.5975 O   0  0  0  0  0  0  0  0  0  0  0  0
   -5.7464   12.9820  -10.2440 N   0  0  0  0  0  0  0  0  0  0  0  0
   -9.7164   15.5711   -3.5757 H   0  0  0  0  0  0  0  0  0  0  0  0
   -6.1212   11.9437  -11.2072 C   0  0  0  0  0  0  0  0  0  0  0  0
   -7.4015   12.3604  -11.9340 C   0  0  0  0  0  0  0  0  0  0  0  0
   -7.7584   13.7324  -11.5493 N   0  0  0  0  0  0  0  0  0  0  0  0
   -7.6718   14.6089  -12.7250 C   0  0  0  0  0  0  0  0  0  0  0  0
   -9.1301   13.7525  -11.0238 C   0  0  0  0  0  0  0  0  0  0  0  0
   -3.0040    4.3837   -6.8152 H   0  0  0  0  0  0  0  0  0  0  0  0
 21 22  2  0  0  0
 22 20  1  0  0  0
 20  1  1  0  0  0
  1 10  1  0  0  0
  1  2  1  0  0  0
  2  7  1  0  0  0
  2  3  2  0  0  0
  3  4  1  0  0  0
  3  8  1  0  0  0
  4  5  2  0  0  0
  4  6  1  0  0  0
  6 23  1  0  0  0
  6  7  1  0  0  0
 23 24  1  0  0  0
 24 25  2  0  0  0
 24 26  1  0  0  0
 26 28  1  0  0  0
 28 29  1  0  0  0
 29 30  1  0  0  0
 30 31  1  0  0  0
 30 32  1  0  0  0
  8 13  1  0  0  0
  8  9  1  0  0  0
 13 19  1  0  0  0
 13 14  2  0  0  0
 14 15  1  0  0  0
 15 16  2  0  0  0
 16 17  1  0  0  0
 16 18  1  0  0  0
 18 19  2  0  0  0
  9 10  1  0  0  0
 10 11  2  0  0  0
 26 27  1  0  0  0
 30 33  1  0  0  0
  9 12  1  0  0  0
M  CHG 1  30   1
M  END
> <minimizedAffinity>
-7.40839

$$$$
ZINC000015173510


 27 29  0  0  0  0  0  0  0  0999 V2000
   -8.4957   16.2588   -7.6727 C   0  0  0  0  0  0  0  0  0  0  0  0
   -7.9048   17.5086   -7.6908 C   0  0  0  0  0  0  0  0  0  0  0  0
   -8.3179   18.4825   -6.8026 C   0  0  0  0  0  0  0  0  0  0  0  0
   -9.3281   18.2050   -5.8907 C   0  0  0  0  0  0  0  0  0  0  0  0
   -9.9196   16.9480   -5.8752 C   0  0  0  0  0  0  0  0  0  0  0  0
   -9.5058   15.9809   -6.7697 C   0  0  0  0  0  0  0  0  0  0  0  0
   -9.7485   19.1876   -4.9914 N   0  0  0  0  0  0  0  0  0  0  0  0
   -9.8513   20.4966   -5.6518 C   0  0  0  0  0  0  0  0  0  0  0  0
  -10.3705   21.5305   -4.6502 C   0  0  0  0  0  0  0  0  0  0  0  0
   -9.4512   21.6101   -3.5074 N   0  0  0  0  0  0  0  0  0  0  0  0
   -9.9407   22.6154   -2.5546 C   0  0  0  0  0  0  0  0  0  0  0  0
   -9.3780   20.3019   -2.8436 C   0  0  0  0  0  0  0  0  0  0  0  0
   -8.8505   19.2579   -3.8301 C   0  0  0  0  0  0  0  0  0  0  0  0
   -9.8571   14.0938  -11.9785 H   0  0  0  0  0  0  0  0  0  0  0  0
   -7.9657   15.0194   -8.8075 S   0  0  0  0  0  0  0  0  0  0  0  0
   -9.0577   14.7868   -9.6865 O   0  0  0  0  0  0  0  0  0  0  0  0
   -7.3623   13.9948   -8.0296 O   0  0  0  0  0  0  0  0  0  0  0  0
   -6.7031   18.1261  -12.6177 C   0  0  0  0  0  0  0  0  0  0  0  0
   -6.6284   16.7745  -11.9047 C   0  0  0  0  0  0  0  0  0  0  0  0
   -5.2150   16.2034  -12.0394 C   0  0  0  0  0  0  0  0  0  0  0  0
   -5.1479   14.8363  -11.3546 C   0  0  0  0  0  0  0  0  0  0  0  0
   -5.4632   15.0002   -9.8645 C   0  0  0  0  0  0  0  0  0  0  0  0
   -6.7579   15.6810   -9.7271 N   0  0  0  0  0  0  0  0  0  0  0  0
   -6.9612   16.9601  -10.4209 C   0  0  0  0  0  0  0  0  0  0  0  0
  -10.9967   16.6480   -4.9055 N   0  0  0  0  0  0  0  0  0  0  0  0
  -10.7527   15.9946   -3.9071 O   0  0  0  0  0  0  0  0  0  0  0  0
  -12.1273   17.0545   -5.1061 O   0  0  0  0  0  0  0  0  0  0  0  0
 18 19  1  0  0  0
 19 24  1  0  0  0
 19 20  1  0  0  0
 20 21  1  0  0  0
 21 22  1  0  0  0
 22 23  1  0  0  0
 23 15  1  0  0  0
 23 24  1  0  0  0
 15 16  2  0  0  0
 15 17  2  0  0  0
 15  1  1  0  0  0
  1  6  1  0  0  0
  1  2  2  0  0  0
  2  3  1  0  0  0
  3  4  2  0  0  0
  4  7  1  0  0  0
  4  5  1  0  0  0
  7 13  1  0  0  0
  7  8  1  0  0  0
  8  9  1  0  0  0
  9 10  1  0  0  0
 10 11  1  0  0  0
 10 12  1  0  0  0
 12 13  1  0  0  0
  5 25  1  0  0  0
  5  6  2  0  0  0
 25 26  1  0  0  0
 25 27  2  0  0  0
 10 14  1  0  0  0
M  CHG 1  10   1
M  CHG 1  25   1
M  CHG 1  26  -1
M  END
> <minimizedAffinity>
-7.85881

$$$$
ZINC000000788703


 33 36  0  0  0  0  0  0  0  0999 V2000
   -8.9016   19.0310   -7.1775 C   0  0  0  0  0  0  0  0  0  0  0  0
   -8.9554   19.6803   -8.4073 C   0  0  0  0  0  0  0  0  0  0  0  0
   -8.3737   19.0711   -9.5288 C   0  0  0  0  0  0  0  0  0  0  0  0
   -7.9099   17.7358   -9.4611 C   0  0  0  0  0  0  0  0  0  0  0  0
   -7.3289   17.1903  -10.5173 N   0  0  0  0  0  0  0  0  0  0  0  0
   -7.1847   17.8662  -11.6588 C   0  0  0  0  0  0  0  0  0  0  0  0
   -6.5407   17.2427  -12.7430 C   0  0  0  0  0  0  0  0  0  0  0  0
   -6.0132   15.8377  -12.6058 C   0  0  0  0  0  0  0  0  0  0  0  0
   -6.3972   17.9177  -13.9187 C   0  0  0  0  0  0  0  0  0  0  0  0
   -6.8929   19.2239  -14.0308 C   0  0  0  0  0  0  0  0  0  0  0  0
   -7.5051   19.8094  -12.9772 C   0  0  0  0  0  0  0  0  0  0  0  0
   -7.6481   19.1451  -11.7956 N   0  0  0  0  0  0  0  0  0  0  0  0
   -8.2506   19.7680  -10.7578 C   0  0  0  0  0  0  0  0  0  0  0  0
   -8.6785   20.9022  -10.8760 O   0  0  0  0  0  0  0  0  0  0  0  0
   -8.0864   17.0155   -8.2985 N   0  0  0  0  0  0  0  0  0  0  0  0
   -8.1907   17.7363   -7.1123 C   0  0  0  0  0  0  0  0  0  0  0  0
   -7.6901   17.2835   -5.9906 N   0  0  0  0  0  0  0  0  0  0  0  0
   -7.6999   17.8395   -5.1957 H   0  0  0  0  0  0  0  0  0  0  0  0
  -10.2907   21.5416   -4.7046 C   0  0  0  0  0  0  0  0  0  0  0  0
   -9.5558   20.9531   -5.8269 N   0  0  0  0  0  0  0  0  0  0  0  0
   -9.5240   19.6150   -5.9841 C   0  0  0  0  0  0  0  0  0  0  0  0
  -10.0118   18.8909   -5.1361 O   0  0  0  0  0  0  0  0  0  0  0  0
   -9.4827   18.9776   -4.8837 H   0  0  0  0  0  0  0  0  0  0  0  0
   -8.1558   15.5522   -8.3119 C   0  0  0  0  0  0  0  0  0  0  0  0
   -6.7768   14.9793   -8.6449 C   0  0  0  0  0  0  0  0  0  0  0  0
   -6.8317   13.4514   -8.5868 C   0  0  0  0  0  0  0  0  0  0  0  0
   -6.5707   12.9008   -9.9235 N   0  0  0  0  0  0  0  0  0  0  0  0
   -7.8369   12.7791  -10.6591 C   0  0  0  0  0  0  0  0  0  0  0  0
   -7.5623   12.2056  -12.0515 C   0  0  0  0  0  0  0  0  0  0  0  0
   -6.9076   10.9407  -11.9197 O   0  0  0  0  0  0  0  0  0  0  0  0
   -5.6796   11.0036  -11.1888 C   0  0  0  0  0  0  0  0  0  0  0  0
   -5.9506   11.5750   -9.7949 C   0  0  0  0  0  0  0  0  0  0  0  0
   -2.9778   11.8009   -2.8470 H   0  0  0  0  0  0  0  0  0  0  0  0
 19 20  1  0  0  0
 20 21  1  0  0  0
 21 22  2  0  0  0
 21  1  1  0  0  0
  1 16  1  0  0  0
  1  2  2  0  0  0
  2  3  1  0  0  0
  3 13  1  0  0  0
  3  4  2  0  0  0
  4  5  1  0  0  0
  4 15  1  0  0  0
  5  6  2  0  0  0
  6 12  1  0  0  0
  6  7  1  0  0  0
  7  8  1  0  0  0
  7  9  2  0  0  0
  9 10  1  0  0  0
 10 11  2  0  0  0
 11 12  1  0  0  0
 12 13  1  0  0  0
 13 14  2  0  0  0
 15 24  1  0  0  0
 15 16  1  0  0  0
 24 25  1  0  0  0
 25 26  1  0  0  0
 26 27  1  0  0  0
 27 32  1  0  0  0
 27 28  1  0  0  0
 28 29  1  0  0  0
 29 30  1  0  0  0
 30 31  1  0  0  0
 31 32  1  0  0  0
 16 17  2  0  0  0
 17 18  1  0  0  0
 20 23  1  0  0  0
 27 33  1  0  0  0
M  CHG 1  27   1
M  END
> <minimizedAffinity>
-9.17463

$$$$
ZINC000012504615


 23 24  0  0  0  0  0  0  0  0999 V2000
   -7.0781   14.5382   -9.8518 S   0  0  0  0  0  0  0  0  0  0  0  0
   -5.9353   13.8073   -9.4288 O   0  0  0  0  0  0  0  0  0  0  0  0
   -8.1619   13.9474  -10.5557 O   0  0  0  0  0  0  0  0  0  0  0  0
   -6.9679   15.9050   -7.4283 C   0  0  0  0  0  0  0  0  0  0  0  0
   -7.9878   16.4052   -6.3836 C   0  0  0  0  0  0  0  0  0  0  0  0
   -9.3093   16.4742   -7.1937 C   0  0  0  0  0  0  0  0  0  0  0  0
  -10.4433   16.3216   -6.3376 O   0  0  0  0  0  0  0  0  0  0  0  0
   -9.1585   15.2565   -8.1392 C   0  0  0  0  0  0  0  0  0  0  0  0
   -7.7238   15.2256   -8.4906 N   0  0  0  0  0  0  0  0  0  0  0  0
   -4.2814   15.9968   -6.3389 H   0  0  0  0  0  0  0  0  0  0  0  0
   -4.8250   14.9652   -7.0822 O   0  0  0  0  0  0  0  0  0  0  0  0
   -6.0071   14.9388   -6.7847 C   0  0  0  0  0  0  0  0  0  0  0  0
   -6.4108   14.1341   -5.9625 O   0  0  0  0  0  0  0  0  0  0  0  0
   -4.4468   14.6476   -8.1176 H   0  0  0  0  0  0  0  0  0  0  0  0
   -6.4822   15.8501  -10.8660 C   0  0  0  0  0  0  0  0  0  0  0  0
   -6.7442   17.1630  -10.5224 C   0  0  0  0  0  0  0  0  0  0  0  0
   -6.2767   18.1923  -11.3182 C   0  0  0  0  0  0  0  0  0  0  0  0
   -5.5469   17.9085  -12.4571 C   0  0  0  0  0  0  0  0  0  0  0  0
   -5.2841   16.5953  -12.8004 C   0  0  0  0  0  0  0  0  0  0  0  0
   -5.7478   15.5663  -12.0025 C   0  0  0  0  0  0  0  0  0  0  0  0
   -5.4665   14.1604  -12.3700 N   0  0  0  0  0  0  0  0  0  0  0  0
   -4.5008   13.5887  -11.8966 O   0  0  0  0  0  0  0  0  0  0  0  0
   -6.2007   13.5751  -13.1459 O   0  0  0  0  0  0  0  0  0  0  0  0
 11 12  2  0  0  0
 12 13  1  0  0  0
 12  4  1  0  0  0
  4  9  1  0  0  0
  4  5  1  0  0  0
  5  6  1  0  0  0
  6  7  1  0  0  0
  6  8  1  0  0  0
  8  9  1  0  0  0
  9  1  1  0  0  0
  1  2  2  0  0  0
  1  3  2  0  0  0
  1 15  1  0  0  0
 15 20  1  0  0  0
 15 16  2  0  0  0
 16 17  1  0  0  0
 17 18  2  0  0  0
 18 19  1  0  0  0
 19 20  2  0  0  0
 20 21  1  0  0  0
 21 22  1  0  0  0
 21 23  2  0  0  0
 13 14  1  0  0  0
  7 10  1  0  0  0
M  CHG 1  21   1
M  CHG 1  22  -1
M  END
> <minimizedAffinity>
-7.53717

$$$$
ZINC000004317902


 28 30  0  0  0  0  0  0  0  0999 V2000
   -7.7849   16.0825   -9.3233 N   0  0  0  0  0  0  0  0  0  0  0  0
   -7.5944   14.7703   -9.0243 C   0  0  0  0  0  0  0  0  0  0  0  0
   -7.8860   14.5636   -7.7561 N   0  0  0  0  0  0  0  0  0  0  0  0
   -8.2707   15.7061   -7.1851 C   0  0  0  0  0  0  0  0  0  0  0  0
   -8.2127   16.7005   -8.1558 C   0  0  0  0  0  0  0  0  0  0  0  0
   -8.5722   18.0160   -7.8134 C   0  0  0  0  0  0  0  0  0  0  0  0
   -8.5294   18.9031   -8.6479 O   0  0  0  0  0  0  0  0  0  0  0  0
   -8.9655   18.2857   -6.5514 N   0  0  0  0  0  0  0  0  0  0  0  0
   -9.3410   19.6548   -6.1899 C   0  0  0  0  0  0  0  0  0  0  0  0
   -9.0184   17.3172   -5.6208 C   0  0  0  0  0  0  0  0  0  0  0  0
   -9.3781   17.5970   -4.4934 O   0  0  0  0  0  0  0  0  0  0  0  0
   -8.6777   16.0459   -5.9049 N   0  0  0  0  0  0  0  0  0  0  0  0
   -8.7494   15.0186   -4.8629 C   0  0  0  0  0  0  0  0  0  0  0  0
   -7.1641   13.8076   -9.9084 N   0  0  0  0  0  0  0  0  0  0  0  0
   -8.0647   13.2706  -10.9408 C   0  0  0  0  0  0  0  0  0  0  0  0
   -7.3481   13.3452  -12.2939 C   0  0  0  0  0  0  0  0  0  0  0  0
   -6.0663   12.7218  -12.1827 O   0  0  0  0  0  0  0  0  0  0  0  0
   -5.1839   13.3591  -11.2559 C   0  0  0  0  0  0  0  0  0  0  0  0
   -5.7881   13.2892   -9.8533 C   0  0  0  0  0  0  0  0  0  0  0  0
   -7.5737   16.7222  -10.6242 C   0  0  0  0  0  0  0  0  0  0  0  0
   -6.1501   17.2788  -10.6936 C   0  0  0  0  0  0  0  0  0  0  0  0
   -6.1921   18.7052  -10.6178 O   0  0  0  0  0  0  0  0  0  0  0  0
   -2.2566   18.1193  -13.3811 H   0  0  0  0  0  0  0  0  0  0  0  0
   -5.5015   16.8570  -12.0136 C   0  0  0  0  0  0  0  0  0  0  0  0
   -5.6543   17.9032  -12.9749 O   0  0  0  0  0  0  0  0  0  0  0  0
   -6.5215   17.5722  -14.0614 C   0  0  0  0  0  0  0  0  0  0  0  0
   -7.4425   19.8119  -13.7503 C   0  0  0  0  0  0  0  0  0  0  0  0
   -7.1876   18.8239  -14.5719 C   0  0  0  0  0  0  0  0  0  0  0  0
 27 28  2  0  0  0
 28 26  1  0  0  0
 26 25  1  0  0  0
 25 24  1  0  0  0
 24 21  1  0  0  0
 21 22  1  0  0  0
 21 20  1  0  0  0
 20  1  1  0  0  0
  1  5  1  0  0  0
  1  2  1  0  0  0
  2 14  1  0  0  0
  2  3  2  0  0  0
 14 19  1  0  0  0
 14 15  1  0  0  0
 15 16  1  0  0  0
 16 17  1  0  0  0
 17 18  1  0  0  0
 18 19  1  0  0  0
  3  4  1  0  0  0
  4 12  1  0  0  0
  4  5  2  0  0  0
  5  6  1  0  0  0
  6  7  2  0  0  0
  6  8  1  0  0  0
  8  9  1  0  0  0
  8 10  1  0  0  0
 10 11  2  0  0  0
 10 12  1  0  0  0
 12 13  1  0  0  0
 22 23  1  0  0  0
M  END
> <minimizedAffinity>
-6.71322

$$$$
ZINC000044943941


 19 20  0  0  0  0  0  0  0  0999 V2000
   -8.3727   18.0732   -9.1002 C   0  0  0  0  0  0  0  0  0  0  0  0
   -7.1338   18.5833   -9.8398 C   0  0  0  0  0  0  0  0  0  0  0  0
   -6.9258   17.7549  -11.1114 C   0  0  0  0  0  0  0  0  0  0  0  0
   -6.8673   16.3332  -10.7454 N   0  0  0  0  0  0  0  0  0  0  0  0
   -5.8255   15.5681  -11.1271 C   0  0  0  0  0  0  0  0  0  0  0  0
   -4.9247   16.0520  -11.7794 O   0  0  0  0  0  0  0  0  0  0  0  0
   -7.9658   15.7614   -9.9547 C   0  0  0  0  0  0  0  0  0  0  0  0
   -8.1620   16.6122   -8.6959 C   0  0  0  0  0  0  0  0  0  0  0  0
   -9.4437   20.9106   -6.7642 C   0  0  0  0  0  0  0  0  0  0  0  0
   -9.2227   20.0991   -7.9639 N   0  0  0  0  0  0  0  0  0  0  0  0
   -8.6000   18.9079   -7.8663 C   0  0  0  0  0  0  0  0  0  0  0  0
   -8.2226   18.5076   -6.7854 O   0  0  0  0  0  0  0  0  0  0  0  0
   -9.2243   20.0991   -7.9591 H   0  0  0  0  0  0  0  0  0  0  0  0
   -5.7798   14.1113  -10.7438 C   0  0  0  0  0  0  0  0  0  0  0  0
   -4.8027   13.2114  -11.5028 C   0  0  0  0  0  0  0  0  0  0  0  0
   -6.3073   13.0965  -11.7599 C   0  0  0  0  0  0  0  0  0  0  0  0
   -6.9942   11.9120  -11.2389 N   0  0  0  0  0  0  0  0  0  0  0  0
   -7.2751   10.9926  -11.9868 O   0  0  0  0  0  0  0  0  0  0  0  0
   -7.2844   11.8466  -10.0578 O   0  0  0  0  0  0  0  0  0  0  0  0
  9 10  1  0  0  0
 10 11  1  0  0  0
 11 12  2  0  0  0
 11  1  1  0  0  0
  1  8  1  0  0  0
  1  2  1  0  0  0
  2  3  1  0  0  0
  3  4  1  0  0  0
  4  5  1  0  0  0
  4  7  1  0  0  0
  5  6  2  0  0  0
  5 14  1  0  0  0
 14 16  1  0  0  0
 14 15  1  0  0  0
 15 16  1  0  0  0
 16 17  1  0  0  0
 17 18  1  0  0  0
 17 19  2  0  0  0
  7  8  1  0  0  0
 10 13  1  0  0  0
M  CHG 1  17   1
M  CHG 1  18  -1
M  END
> <minimizedAffinity>
-7.02302

$$$$
ZINC000252462339


 25 26  0  0  0  0  0  0  0  0999 V2000
   -7.0437   16.7921  -11.8112 O   0  0  0  0  0  0  0  0  0  0  0  0
   -6.3105   15.7748  -12.2898 C   0  0  0  0  0  0  0  0  0  0  0  0
   -5.2630   15.9962  -12.8499 O   0  0  0  0  0  0  0  0  0  0  0  0
   -6.7936   14.3565  -12.1287 C   0  0  0  0  0  0  0  0  0  0  0  0
   -6.4621   13.6047  -13.2978 O   0  0  0  0  0  0  0  0  0  0  0  0
   -8.3170   14.5204  -11.8591 H   0  0  0  0  0  0  0  0  0  0  0  0
   -6.1217   13.7243  -10.9082 C   0  0  0  0  0  0  0  0  0  0  0  0
   -5.3595   12.4694  -11.3386 C   0  0  0  0  0  0  0  0  0  0  0  0
   -5.2102   14.6597  -10.3283 O   0  0  0  0  0  0  0  0  0  0  0  0
   -7.3571   15.7556  -11.7478 H   0  0  0  0  0  0  0  0  0  0  0  0
   -8.9474   13.3511  -12.8988 C   0  0  0  0  0  0  0  0  0  0  0  0
   -8.3112   14.3537  -11.9339 C   0  0  0  0  0  0  0  0  0  0  0  0
   -8.6398   13.9546  -10.4939 C   0  0  0  0  0  0  0  0  0  0  0  0
   -6.3511   17.7821  -11.0058 C   0  0  0  0  0  0  0  0  0  0  0  0
   -6.9798   17.8457   -9.6377 C   0  0  0  0  0  0  0  0  0  0  0  0
   -6.4095   17.4580   -8.5239 C   0  0  0  0  0  0  0  0  0  0  0  0
   -7.3616   17.6769   -7.3695 C   0  0  0  0  0  0  0  0  0  0  0  0
   -8.6962   17.8197   -7.9931 N   0  0  0  0  0  0  0  0  0  0  0  0
   -9.4040   16.5354   -8.0793 C   0  0  0  0  0  0  0  0  0  0  0  0
   -9.4757   18.8511   -7.2896 C   0  0  0  0  0  0  0  0  0  0  0  0
   -9.0052   20.2083   -7.8373 C   0  0  0  0  0  0  0  0  0  0  0  0
   -8.2950   19.8964   -9.1659 C   0  0  0  0  0  0  0  0  0  0  0  0
   -8.9657   20.5466  -10.2473 O   0  0  0  0  0  0  0  0  0  0  0  0
   -8.3662   18.3738   -9.3358 C   0  0  0  0  0  0  0  0  0  0  0  0
   -2.0227   17.7552  -11.7536 H   0  0  0  0  0  0  0  0  0  0  0  0
 11 12  1  0  0  0
 12 13  1  0  0  0
  4 12  1  0  0  0
  4  5  1  0  0  0
  4  2  1  0  0  0
  4  7  1  0  0  0
  2  3  2  0  0  0
  2  1  1  0  0  0
  1 14  1  0  0  0
 14 15  1  0  0  0
 15 24  1  0  0  0
 15 16  2  0  0  0
 16 17  1  0  0  0
 17 18  1  0  0  0
 18 24  1  0  0  0
 18 19  1  0  0  0
 18 20  1  0  0  0
 20 21  1  0  0  0
 21 22  1  0  0  0
 22 23  1  0  0  0
 22 24  1  0  0  0
  7  8  1  0  0  0
  7  9  1  0  0  0
  5  6  1  0  0  0
 23 25  1  0  0  0
  9 10  1  0  0  0
M  CHG 1  18   1
M  END
> <minimizedAffinity>
-6.72994

$$$$
ZINC000257249334


 38 41  0  0  0  0  0  0  0  0999 V2000
   -9.0799   15.1779   -4.7873 C   0  0  0  0  0  0  0  0  0  0  0  0
   -9.0148   15.4504   -6.2914 C   0  0  0  0  0  0  0  0  0  0  0  0
   -9.3963   14.2740   -7.0073 O   0  0  0  0  0  0  0  0  0  0  0  0
   -7.5872   15.8480   -6.6788 C   0  0  0  0  0  0  0  0  0  0  0  0
   -7.5489   16.1948   -8.1694 C   0  0  0  0  0  0  0  0  0  0  0  0
   -6.1385   16.6514   -8.5490 C   0  0  0  0  0  0  0  0  0  0  0  0
   -6.1091   17.0267  -10.0338 C   0  0  0  0  0  0  0  0  0  0  0  0
   -6.6070   15.8893  -10.8193 N   0  0  0  0  0  0  0  0  0  0  0  0
   -5.8770   15.3819  -11.8323 C   0  0  0  0  0  0  0  0  0  0  0  0
   -4.7978   15.8644  -12.1030 O   0  0  0  0  0  0  0  0  0  0  0  0
   -7.9161   15.3154  -10.4788 C   0  0  0  0  0  0  0  0  0  0  0  0
   -7.9255   14.9586   -8.9891 C   0  0  0  0  0  0  0  0  0  0  0  0
   -8.4789   17.2460   -8.4370 O   0  0  0  0  0  0  0  0  0  0  0  0
   -9.8365   16.9147   -8.1380 C   0  0  0  0  0  0  0  0  0  0  0  0
   -9.9662   16.5973   -6.6461 C   0  0  0  0  0  0  0  0  0  0  0  0
   -8.8465   15.5537   -6.5207 H   0  0  0  0  0  0  0  0  0  0  0  0
   -9.6184   17.7842   -5.8609 N   0  0  0  0  0  0  0  0  0  0  0  0
   -8.7113   18.7433   -6.2062 C   0  0  0  0  0  0  0  0  0  0  0  0
   -8.6527   19.6535   -5.2785 N   0  0  0  0  0  0  0  0  0  0  0  0
   -9.5156   19.3380   -4.2815 C   0  0  0  0  0  0  0  0  0  0  0  0
   -9.8701   19.9336   -3.0588 C   0  0  0  0  0  0  0  0  0  0  0  0
   -9.2819   21.1185   -2.6531 N   0  0  0  0  0  0  0  0  0  0  0  0
  -10.7824   19.3348   -2.3012 N   0  0  0  0  0  0  0  0  0  0  0  0
  -11.3518   18.1987   -2.6824 C   0  0  0  0  0  0  0  0  0  0  0  0
  -12.2976   17.6145   -1.8560 N   0  0  0  0  0  0  0  0  0  0  0  0
  -11.0478   17.6048   -3.8252 N   0  0  0  0  0  0  0  0  0  0  0  0
  -10.1492   18.1385   -4.6464 C   0  0  0  0  0  0  0  0  0  0  0  0
   -8.6915   15.8025   -6.9655 H   0  0  0  0  0  0  0  0  0  0  0  0
   -8.6915   15.8025   -6.9655 H   0  0  0  0  0  0  0  0  0  0  0  0
   -8.6915   15.8025   -6.9655 H   0  0  0  0  0  0  0  0  0  0  0  0
   -8.6915   15.8025   -6.9655 H   0  0  0  0  0  0  0  0  0  0  0  0
   -6.4017   14.2149  -12.6284 C   0  0  0  0  0  0  0  0  0  0  0  0
   -5.5137   13.1043  -12.4874 O   0  0  0  0  0  0  0  0  0  0  0  0
   -5.5703   12.4737  -11.2063 C   0  0  0  0  0  0  0  0  0  0  0  0
   -6.8076   11.6175  -11.1221 C   0  0  0  0  0  0  0  0  0  0  0  0
   -7.0992   10.8753  -12.0444 O   0  0  0  0  0  0  0  0  0  0  0  0
   -7.5170   11.6670  -10.1317 O   0  0  0  0  0  0  0  0  0  0  0  0
    2.7392   14.3521  -13.8719 H   0  0  0  0  0  0  0  0  0  0  0  0
  2  1  1  0  0  0
  2 15  1  0  0  0
  2  3  1  0  0  0
  2  4  1  0  0  0
  4  5  1  0  0  0
  5 12  1  0  0  0
  5  6  1  0  0  0
  5 13  1  0  0  0
  6  7  1  0  0  0
  7  8  1  0  0  0
  8  9  1  0  0  0
  8 11  1  0  0  0
  9 10  2  0  0  0
  9 32  1  0  0  0
 32 33  1  0  0  0
 33 34  1  0  0  0
 34 35  1  0  0  0
 35 36  2  0  0  0
 35 37  1  0  0  0
 11 12  1  0  0  0
 13 14  1  0  0  0
 14 15  1  0  0  0
 15 17  1  0  0  0
 17 27  1  0  0  0
 17 18  1  0  0  0
 18 19  2  0  0  0
 19 20  1  0  0  0
 20 27  2  0  0  0
 20 21  1  0  0  0
 21 22  1  0  0  0
 21 23  2  0  0  0
 23 24  1  0  0  0
 24 25  1  0  0  0
 24 26  2  0  0  0
 26 27  1  0  0  0
  3 16  1  0  0  0
 37 38  1  0  0  0
 22 28  1  0  0  0
 22 29  1  0  0  0
 25 30  1  0  0  0
 25 31  1  0  0  0
M  END
> <minimizedAffinity>
-8.45035

$$$$
ZINC000096065067


 23 25  0  0  0  0  0  0  0  0999 V2000
   -6.5778   16.7501  -12.0081 N   0  0  0  0  0  0  0  0  0  0  0  0
   -5.2168   16.2810  -11.7205 C   0  0  0  0  0  0  0  0  0  0  0  0
   -5.2121   14.7548  -11.6095 C   0  0  0  0  0  0  0  0  0  0  0  0
   -6.1516   14.3273  -10.4789 C   0  0  0  0  0  0  0  0  0  0  0  0
   -6.2071   12.9015  -10.4182 O   0  0  0  0  0  0  0  0  0  0  0  0
   -6.6575   12.2812  -11.6241 C   0  0  0  0  0  0  0  0  0  0  0  0
   -8.0805   12.7520  -11.9362 C   0  0  0  0  0  0  0  0  0  0  0  0
   -8.0901   14.2792  -12.0519 C   0  0  0  0  0  0  0  0  0  0  0  0
   -7.5513   14.8861  -10.7503 C   0  0  0  0  0  0  0  0  0  0  0  0
   -7.4673   16.4075  -10.8919 C   0  0  0  0  0  0  0  0  0  0  0  0
   -5.7512   18.5560  -13.4166 H   0  0  0  0  0  0  0  0  0  0  0  0
   -6.5632   18.2075  -12.1912 C   0  0  0  0  0  0  0  0  0  0  0  0
   -8.2160   19.8395  -11.4386 C   0  0  0  0  0  0  0  0  0  0  0  0
   -7.4088   18.8562  -11.1258 C   0  0  0  0  0  0  0  0  0  0  0  0
   -8.4820   14.5227   -9.5915 C   0  0  0  0  0  0  0  0  0  0  0  0
   -7.9658   15.0699   -8.3765 O   0  0  0  0  0  0  0  0  0  0  0  0
   -8.9629   15.6394   -7.5259 C   0  0  0  0  0  0  0  0  0  0  0  0
   -8.5950   17.0904   -7.2093 C   0  0  0  0  0  0  0  0  0  0  0  0
   -9.4029   18.0316   -8.1081 C   0  0  0  0  0  0  0  0  0  0  0  0
   -9.0869   19.4812   -7.7306 C   0  0  0  0  0  0  0  0  0  0  0  0
   -9.3859   19.6881   -6.3486 O   0  0  0  0  0  0  0  0  0  0  0  0
   -8.6259   18.8686   -5.4581 C   0  0  0  0  0  0  0  0  0  0  0  0
   -8.9234   17.3944   -5.7443 C   0  0  0  0  0  0  0  0  0  0  0  0
 13 14  2  0  0  0
 14 12  1  0  0  0
 12  1  1  0  0  0
  1 10  1  0  0  0
  1  2  1  0  0  0
  2  3  1  0  0  0
  3  4  1  0  0  0
  4  9  1  0  0  0
  4  5  1  0  0  0
  5  6  1  0  0  0
  6  7  1  0  0  0
  7  8  1  0  0  0
  8  9  1  0  0  0
  9 15  1  0  0  0
  9 10  1  0  0  0
 15 16  1  0  0  0
 16 17  1  0  0  0
 17 18  1  0  0  0
 18 23  1  0  0  0
 18 19  1  0  0  0
 19 20  1  0  0  0
 20 21  1  0  0  0
 21 22  1  0  0  0
 22 23  1  0  0  0
  1 11  1  0  0  0
M  CHG 1   1   1
M  END
> <minimizedAffinity>
-6.62472

$$$$
CHEMBL601719_8.09


 33 36  0  0  0  0  0  0  0  0999 V2000
   -7.6257   18.2099  -10.8234 C   0  0  0  0  0  0  0  0  0  0  0  0
   -8.0426   18.3095   -9.4964 C   0  0  0  0  0  0  0  0  0  0  0  0
   -8.5022   19.5283   -8.9924 C   0  0  0  0  0  0  0  0  0  0  0  0
   -8.5804   20.5898   -9.8861 C   0  0  0  0  0  0  0  0  0  0  0  0
   -8.2375   20.5159  -11.1968 N   0  0  0  0  0  0  0  0  0  0  0  0
   -7.7715   19.3345  -11.6453 C   0  0  0  0  0  0  0  0  0  0  0  0
   -7.3715   19.3066  -12.9826 N   0  0  0  0  0  0  0  0  0  0  0  0
   -9.4685   15.0311  -11.4480 H   0  0  0  0  0  0  0  0  0  0  0  0
   -9.4685   15.0311  -11.4480 H   0  0  0  0  0  0  0  0  0  0  0  0
   -8.8558   19.6540   -7.5919 C   0  0  0  0  0  0  0  0  0  0  0  0
   -9.4878   20.7077   -6.8942 C   0  0  0  0  0  0  0  0  0  0  0  0
   -9.7007   20.4223   -5.6094 N   0  0  0  0  0  0  0  0  0  0  0  0
   -9.2199   19.1752   -5.4698 N   0  0  0  0  0  0  0  0  0  0  0  0
   -8.6983   18.6731   -6.6351 C   0  0  0  0  0  0  0  0  0  0  0  0
   -9.3053   18.4630   -4.1959 C   0  0  0  0  0  0  0  0  0  0  0  0
  -10.6793   18.6483   -3.5407 C   0  0  0  0  0  0  0  0  0  0  0  0
  -11.7250   17.7118   -4.1379 C   0  0  0  0  0  0  0  0  0  0  0  0
  -11.3041   16.3152   -4.0365 N   0  0  0  0  0  0  0  0  0  0  0  0
  -10.0643   16.0939   -4.7834 C   0  0  0  0  0  0  0  0  0  0  0  0
   -8.9245   16.9742   -4.2693 C   0  0  0  0  0  0  0  0  0  0  0  0
   -9.0326   22.4768  -12.7813 H   0  0  0  0  0  0  0  0  0  0  0  0
   -7.1380   17.0629  -11.3926 O   0  0  0  0  0  0  0  0  0  0  0  0
   -4.8806   16.5725  -12.1010 C   0  0  0  0  0  0  0  0  0  0  0  0
   -5.8667   16.5797  -10.9287 C   0  0  0  0  0  0  0  0  0  0  0  0
   -6.0316   15.2027  -10.2946 C   0  0  0  0  0  0  0  0  0  0  0  0
   -5.9301   15.0348   -8.8930 C   0  0  0  0  0  0  0  0  0  0  0  0
   -5.5722   16.3412   -7.8124 Cl  0  0  0  0  0  0  0  0  0  0  0  0
   -6.1035   13.7814   -8.2870 C   0  0  0  0  0  0  0  0  0  0  0  0
   -6.3574   12.6573   -9.0616 C   0  0  0  0  0  0  0  0  0  0  0  0
   -6.4421   12.7920  -10.4385 C   0  0  0  0  0  0  0  0  0  0  0  0
   -6.6728   11.6884  -11.1670 F   0  0  0  0  0  0  0  0  0  0  0  0
   -6.2913   14.0406  -11.0600 C   0  0  0  0  0  0  0  0  0  0  0  0
   -6.4455   14.0614  -12.7863 Cl  0  0  0  0  0  0  0  0  0  0  0  0
 23 24  1  0  0  0
 24 25  1  0  0  0
 24 22  1  0  0  0
 22  1  1  0  0  0
  1  6  1  0  0  0
  1  2  2  0  0  0
  2  3  1  0  0  0
  3  4  2  0  0  0
  3 10  1  0  0  0
  4  5  1  0  0  0
  5  6  2  0  0  0
  6  7  1  0  0  0
 10 11  1  0  0  0
 10 14  2  0  0  0
 11 12  2  0  0  0
 12 13  1  0  0  0
 13 14  1  0  0  0
 13 15  1  0  0  0
 15 20  1  0  0  0
 15 16  1  0  0  0
 16 17  1  0  0  0
 17 18  1  0  0  0
 18 19  1  0  0  0
 19 20  1  0  0  0
 25 26  2  0  0  0
 25 32  1  0  0  0
 26 28  1  0  0  0
 26 27  1  0  0  0
 28 29  2  0  0  0
 29 30  1  0  0  0
 30 32  2  0  0  0
 30 31  1  0  0  0
 32 33  1  0  0  0
  7  8  1  0  0  0
  7  9  1  0  0  0
 18 21  1  0  0  0
M  END
> <minimizedAffinity>
-8.79091

$$$$
ZINC000013556532


 25 27  0  0  0  0  0  0  0  0999 V2000
   -8.8479   18.9787   -7.6629 N   0  0  0  0  0  0  0  0  0  0  0  0
   -9.4389   19.2170   -8.9884 C   0  0  0  0  0  0  0  0  0  0  0  0
   -8.3208   19.1705  -10.0354 C   0  0  0  0  0  0  0  0  0  0  0  0
   -7.5821   17.9078   -9.9025 N   0  0  0  0  0  0  0  0  0  0  0  0
   -6.9203   17.8128   -8.5945 C   0  0  0  0  0  0  0  0  0  0  0  0
   -7.9760   17.8069   -7.4901 C   0  0  0  0  0  0  0  0  0  0  0  0
   -9.0943   19.8152   -6.6352 C   0  0  0  0  0  0  0  0  0  0  0  0
   -8.9389   19.2598   -5.0233 S   0  0  0  0  0  0  0  0  0  0  0  0
   -9.4631   21.0888   -6.8765 N   0  0  0  0  0  0  0  0  0  0  0  0
  -10.4293   25.7023   -5.6741 H   0  0  0  0  0  0  0  0  0  0  0  0
   -9.5251   22.0545   -5.7765 C   0  0  0  0  0  0  0  0  0  0  0  0
   -9.3764   23.4718   -6.3331 C   0  0  0  0  0  0  0  0  0  0  0  0
   -9.9058   24.4794   -5.3105 C   0  0  0  0  0  0  0  0  0  0  0  0
   -9.7833   26.8019   -5.8903 C   0  0  0  0  0  0  0  0  0  0  0  0
  -10.5128   25.5776   -5.9942 O   0  0  0  0  0  0  0  0  0  0  0  0
   -6.6138   17.7469  -10.9954 C   0  0  0  0  0  0  0  0  0  0  0  0
   -6.4534   16.2824  -11.3129 C   0  0  0  0  0  0  0  0  0  0  0  0
   -5.1901   15.7479  -11.4822 C   0  0  0  0  0  0  0  0  0  0  0  0
   -5.0378   14.4047  -11.7737 C   0  0  0  0  0  0  0  0  0  0  0  0
   -6.1521   13.5915  -11.8970 C   0  0  0  0  0  0  0  0  0  0  0  0
   -6.2754   12.2607  -12.1745 O   0  0  0  0  0  0  0  0  0  0  0  0
   -7.6106   11.9055  -11.7694 C   0  0  0  0  0  0  0  0  0  0  0  0
   -8.3459   13.1369  -11.8969 O   0  0  0  0  0  0  0  0  0  0  0  0
   -7.4254   14.1303  -11.7262 C   0  0  0  0  0  0  0  0  0  0  0  0
   -7.5701   15.4752  -11.4285 C   0  0  0  0  0  0  0  0  0  0  0  0
 14 15  1  0  0  0
 15 13  1  0  0  0
 13 12  1  0  0  0
 12 11  1  0  0  0
 11  9  1  0  0  0
  9  7  1  0  0  0
  7  8  2  0  0  0
  7  1  1  0  0  0
  1  6  1  0  0  0
  1  2  1  0  0  0
  2  3  1  0  0  0
  3  4  1  0  0  0
  4 16  1  0  0  0
  4  5  1  0  0  0
 16 17  1  0  0  0
 17 25  1  0  0  0
 17 18  2  0  0  0
 18 19  1  0  0  0
 19 20  2  0  0  0
 20 24  1  0  0  0
 20 21  1  0  0  0
 21 22  1  0  0  0
 22 23  1  0  0  0
 23 24  1  0  0  0
 24 25  2  0  0  0
  5  6  1  0  0  0
  9 10  1  0  0  0
M  END
> <minimizedAffinity>
-6.75776

$$$$
ZINC000022796600


 35 37  0  0  0  0  0  0  0  0999 V2000
   -8.2741   19.6482  -10.2972 C   0  0  0  0  0  0  0  0  0  0  0  0
   -8.6181   20.8092  -10.2179 O   0  0  0  0  0  0  0  0  0  0  0  0
   -8.6073   18.7785   -9.3231 N   0  0  0  0  0  0  0  0  0  0  0  0
  -15.8767   28.8688  -12.2060 H   0  0  0  0  0  0  0  0  0  0  0  0
   -6.6040   18.1683  -11.3389 N   0  0  0  0  0  0  0  0  0  0  0  0
   -7.4807   19.1829  -11.4751 C   0  0  0  0  0  0  0  0  0  0  0  0
   -7.6256   19.7186  -12.5543 O   0  0  0  0  0  0  0  0  0  0  0  0
   -3.0946   18.3426    0.5624 H   0  0  0  0  0  0  0  0  0  0  0  0
   -5.8262   17.7122  -12.4936 C   0  0  0  0  0  0  0  0  0  0  0  0
   -6.6620   16.7286  -13.3152 C   0  0  0  0  0  0  0  0  0  0  0  0
   -6.7614   12.9434  -11.3343 C   0  0  0  0  0  0  0  0  0  0  0  0
   -5.5454   13.5158  -11.6784 C   0  0  0  0  0  0  0  0  0  0  0  0
   -5.5160   14.7394  -12.3190 C   0  0  0  0  0  0  0  0  0  0  0  0
   -6.6971   15.3937  -12.6168 C   0  0  0  0  0  0  0  0  0  0  0  0
   -7.9102   14.8251  -12.2753 C   0  0  0  0  0  0  0  0  0  0  0  0
   -7.9452   13.5993  -11.6393 C   0  0  0  0  0  0  0  0  0  0  0  0
   -5.6036   10.9491  -10.7559 C   0  0  0  0  0  0  0  0  0  0  0  0
   -6.7929   11.7396  -10.7045 O   0  0  0  0  0  0  0  0  0  0  0  0
   -9.3851   19.2347   -8.1685 C   0  0  0  0  0  0  0  0  0  0  0  0
   -9.5812   18.0717   -7.1939 C   0  0  0  0  0  0  0  0  0  0  0  0
   -9.4616   18.5630   -5.8147 N   0  0  0  0  0  0  0  0  0  0  0  0
  -10.4151   17.8811   -4.9281 C   0  0  0  0  0  0  0  0  0  0  0  0
  -10.2179   18.3770   -3.4939 C   0  0  0  0  0  0  0  0  0  0  0  0
  -10.4297   19.8296   -3.4445 N   0  0  0  0  0  0  0  0  0  0  0  0
  -10.2577   20.3026   -2.0644 C   0  0  0  0  0  0  0  0  0  0  0  0
   -9.4544   20.4983   -4.3158 C   0  0  0  0  0  0  0  0  0  0  0  0
   -9.6452   20.0200   -5.7569 C   0  0  0  0  0  0  0  0  0  0  0  0
   -3.7873   30.0643   -8.6142 H   0  0  0  0  0  0  0  0  0  0  0  0
   -8.5297   17.0220   -7.4462 C   0  0  0  0  0  0  0  0  0  0  0  0
   -7.2062   17.2831   -7.1446 C   0  0  0  0  0  0  0  0  0  0  0  0
   -6.2417   16.3202   -7.3761 C   0  0  0  0  0  0  0  0  0  0  0  0
   -6.6007   15.0963   -7.9088 C   0  0  0  0  0  0  0  0  0  0  0  0
   -5.5492   14.0469   -8.1617 C   0  0  0  0  0  0  0  0  0  0  0  0
   -7.9244   14.8348   -8.2092 C   0  0  0  0  0  0  0  0  0  0  0  0
   -8.8895   15.7961   -7.9742 C   0  0  0  0  0  0  0  0  0  0  0  0
 17 18  1  0  0  0
 18 11  1  0  0  0
 11 16  2  0  0  0
 11 12  1  0  0  0
 12 13  2  0  0  0
 13 14  1  0  0  0
 14 10  1  0  0  0
 14 15  2  0  0  0
 10  9  1  0  0  0
  9  5  1  0  0  0
  5  6  1  0  0  0
  6  7  2  0  0  0
  6  1  1  0  0  0
  1  2  2  0  0  0
  1  3  1  0  0  0
  3 19  1  0  0  0
 19 20  1  0  0  0
 20 29  1  0  0  0
 20 21  1  0  0  0
 29 35  1  0  0  0
 29 30  2  0  0  0
 30 31  1  0  0  0
 31 32  2  0  0  0
 32 33  1  0  0  0
 32 34  1  0  0  0
 34 35  2  0  0  0
 21 27  1  0  0  0
 21 22  1  0  0  0
 22 23  1  0  0  0
 23 24  1  0  0  0
 24 25  1  0  0  0
 24 26  1  0  0  0
 26 27  1  0  0  0
 15 16  1  0  0  0
  5  8  1  0  0  0
  3  4  1  0  0  0
 24 28  1  0  0  0
M  CHG 1  24   1
M  END
> <minimizedAffinity>
-7.49297

$$$$
ZINC000012823896


 30 32  0  0  0  0  0  0  0  0999 V2000
   -9.3819   16.2777   -7.0724 C   0  0  0  0  0  0  0  0  0  0  0  0
  -10.4364   16.5359   -6.5419 O   0  0  0  0  0  0  0  0  0  0  0  0
   -8.9975   14.8428   -7.3262 C   0  0  0  0  0  0  0  0  0  0  0  0
   -4.4398   14.3829  -11.3733 C   0  0  0  0  0  0  0  0  0  0  0  0
   -5.8617   14.2952  -11.0311 N   0  0  0  0  0  0  0  0  0  0  0  0
   -6.2803   14.5689   -9.7390 C   0  0  0  0  0  0  0  0  0  0  0  0
   -7.6339   14.4789   -9.4395 C   0  0  0  0  0  0  0  0  0  0  0  0
   -8.5405   14.1122  -10.4573 C   0  0  0  0  0  0  0  0  0  0  0  0
   -9.7320   14.0267  -10.2196 O   0  0  0  0  0  0  0  0  0  0  0  0
   -8.0719   13.8579  -11.6968 N   0  0  0  0  0  0  0  0  0  0  0  0
   -9.0074   13.4767  -12.7578 C   0  0  0  0  0  0  0  0  0  0  0  0
   -6.7601   13.9541  -11.9740 C   0  0  0  0  0  0  0  0  0  0  0  0
   -6.3740   13.7178  -13.1027 O   0  0  0  0  0  0  0  0  0  0  0  0
   -7.7558   14.8000   -8.1025 N   0  0  0  0  0  0  0  0  0  0  0  0
   -6.5161   15.0661   -7.6468 C   0  0  0  0  0  0  0  0  0  0  0  0
   -5.6497   14.9278   -8.6178 N   0  0  0  0  0  0  0  0  0  0  0  0
   -8.5530   17.2690   -7.4357 O   0  0  0  0  0  0  0  0  0  0  0  0
   -8.9577   18.6227   -7.1011 C   0  0  0  0  0  0  0  0  0  0  0  0
   -8.7961   19.5085   -8.3095 C   0  0  0  0  0  0  0  0  0  0  0  0
   -9.1076   20.6786   -8.2494 O   0  0  0  0  0  0  0  0  0  0  0  0
   -8.3050   19.0000   -9.4570 N   0  0  0  0  0  0  0  0  0  0  0  0
   -8.1604   19.7922  -10.5377 C   0  0  0  0  0  0  0  0  0  0  0  0
   -8.4728   20.9650  -10.4775 O   0  0  0  0  0  0  0  0  0  0  0  0
   -9.2142   16.8373    0.3076 H   0  0  0  0  0  0  0  0  0  0  0  0
   -7.6222   19.2347  -11.7957 C   0  0  0  0  0  0  0  0  0  0  0  0
   -6.9300   18.0222  -11.7859 C   0  0  0  0  0  0  0  0  0  0  0  0
   -6.4304   17.5072  -12.9640 C   0  0  0  0  0  0  0  0  0  0  0  0
   -6.6141   18.1894  -14.1537 C   0  0  0  0  0  0  0  0  0  0  0  0
   -7.2987   19.3917  -14.1706 C   0  0  0  0  0  0  0  0  0  0  0  0
   -7.8085   19.9152  -13.0006 C   0  0  0  0  0  0  0  0  0  0  0  0
  4  5  1  0  0  0
  5 12  1  0  0  0
  5  6  1  0  0  0
  6 16  1  0  0  0
  6  7  2  0  0  0
  7  8  1  0  0  0
  7 14  1  0  0  0
  8  9  2  0  0  0
  8 10  1  0  0  0
 10 11  1  0  0  0
 10 12  1  0  0  0
 12 13  2  0  0  0
 14  3  1  0  0  0
 14 15  1  0  0  0
  3  1  1  0  0  0
  1  2  2  0  0  0
  1 17  1  0  0  0
 17 18  1  0  0  0
 18 19  1  0  0  0
 19 20  2  0  0  0
 19 21  1  0  0  0
 21 22  1  0  0  0
 22 23  2  0  0  0
 22 25  1  0  0  0
 25 30  1  0  0  0
 25 26  2  0  0  0
 26 27  1  0  0  0
 27 28  2  0  0  0
 28 29  1  0  0  0
 29 30  2  0  0  0
 15 16  2  0  0  0
 21 24  1  0  0  0
M  END
> <minimizedAffinity>
-8.97571

$$$$
ZINC000058003400


 23 25  0  0  0  0  0  0  0  0999 V2000
   -6.9403   18.4918  -11.3822 N   0  0  0  0  0  0  0  0  0  0  0  0
   -7.7952   19.3825  -11.9225 C   0  0  0  0  0  0  0  0  0  0  0  0
   -7.8853   19.6955  -13.0903 O   0  0  0  0  0  0  0  0  0  0  0  0
   -8.6213   19.9109  -10.7666 C   0  0  0  0  0  0  0  0  0  0  0  0
   -8.0856   19.1888   -9.5997 N   0  0  0  0  0  0  0  0  0  0  0  0
   -7.1129   18.3815  -10.0601 C   0  0  0  0  0  0  0  0  0  0  0  0
   -6.4590   17.6402   -9.3529 O   0  0  0  0  0  0  0  0  0  0  0  0
   -8.5098   19.3139   -8.2721 C   0  0  0  0  0  0  0  0  0  0  0  0
   -8.9814   20.5334   -7.8043 C   0  0  0  0  0  0  0  0  0  0  0  0
   -9.3992   20.6535   -6.4934 C   0  0  0  0  0  0  0  0  0  0  0  0
   -9.3485   19.5612   -5.6471 C   0  0  0  0  0  0  0  0  0  0  0  0
   -8.8795   18.3454   -6.1098 C   0  0  0  0  0  0  0  0  0  0  0  0
   -8.4655   18.2173   -7.4212 C   0  0  0  0  0  0  0  0  0  0  0  0
   -5.9486   17.7335  -12.1488 C   0  0  0  0  0  0  0  0  0  0  0  0
   -6.8707   13.5614  -11.9392 C   0  0  0  0  0  0  0  0  0  0  0  0
   -7.8696   14.4869  -12.2472 C   0  0  0  0  0  0  0  0  0  0  0  0
   -7.5650   15.8310  -12.3131 C   0  0  0  0  0  0  0  0  0  0  0  0
   -6.2732   16.2637  -12.0750 C   0  0  0  0  0  0  0  0  0  0  0  0
   -5.2760   15.3514  -11.7682 C   0  0  0  0  0  0  0  0  0  0  0  0
   -4.0164   15.7814  -11.5363 F   0  0  0  0  0  0  0  0  0  0  0  0
   -5.5691   14.0033  -11.6944 C   0  0  0  0  0  0  0  0  0  0  0  0
   -7.4275   11.0576  -11.8133 N   0  0  0  0  0  0  0  0  0  0  0  0
   -7.1812   12.1651  -11.8690 C   0  0  0  0  0  0  0  0  0  0  0  0
 22 23  3  0  0  0
 23 15  1  0  0  0
 15 21  2  0  0  0
 15 16  1  0  0  0
 16 17  2  0  0  0
 17 18  1  0  0  0
 18 14  1  0  0  0
 18 19  2  0  0  0
 14  1  1  0  0  0
  1  6  1  0  0  0
  1  2  1  0  0  0
  2  3  2  0  0  0
  2  4  1  0  0  0
  4  5  1  0  0  0
  5  8  1  0  0  0
  5  6  1  0  0  0
  8 13  1  0  0  0
  8  9  2  0  0  0
  9 10  1  0  0  0
 10 11  2  0  0  0
 11 12  1  0  0  0
 12 13  2  0  0  0
  6  7  2  0  0  0
 19 20  1  0  0  0
 19 21  1  0  0  0
M  END
> <minimizedAffinity>
-8.04022

$$$$
ZINC000095941914


 22 23  0  0  0  0  0  0  0  0999 V2000
   -9.0831   17.8368   -7.0104 S   0  0  0  0  0  0  0  0  0  0  0  0
   -8.2296   17.7816   -5.8756 O   0  0  0  0  0  0  0  0  0  0  0  0
  -10.2318   17.0137   -7.1598 O   0  0  0  0  0  0  0  0  0  0  0  0
   -8.0643   17.5288   -8.4146 C   0  0  0  0  0  0  0  0  0  0  0  0
   -7.7063   18.5700   -9.2502 C   0  0  0  0  0  0  0  0  0  0  0  0
   -6.9074   18.3288  -10.3523 C   0  0  0  0  0  0  0  0  0  0  0  0
   -6.4660   17.0454  -10.6185 C   0  0  0  0  0  0  0  0  0  0  0  0
   -5.3726   16.7149  -12.1255 Br  0  0  0  0  0  0  0  0  0  0  0  0
   -6.8243   16.0037   -9.7817 C   0  0  0  0  0  0  0  0  0  0  0  0
   -7.6187   16.2467   -8.6772 C   0  0  0  0  0  0  0  0  0  0  0  0
   -8.0016   15.1323   -7.7816 N   0  0  0  0  0  0  0  0  0  0  0  0
   -8.9437   14.4159   -8.0693 O   0  0  0  0  0  0  0  0  0  0  0  0
   -7.3746   14.9317   -6.7569 O   0  0  0  0  0  0  0  0  0  0  0  0
   -9.6117   19.4021   -7.1223 N   0  0  0  0  0  0  0  0  0  0  0  0
   -8.3662   23.4561   -8.2205 H   0  0  0  0  0  0  0  0  0  0  0  0
  -12.3496   21.9160   -5.1672 O   0  0  0  0  0  0  0  0  0  0  0  0
  -11.2222   21.6617   -5.5351 C   0  0  0  0  0  0  0  0  0  0  0  0
  -10.3896   20.5008   -5.0374 C   0  0  0  0  0  0  0  0  0  0  0  0
   -9.2570   20.3711   -6.0822 C   0  0  0  0  0  0  0  0  0  0  0  0
   -9.1943   21.8032   -6.6581 C   0  0  0  0  0  0  0  0  0  0  0  0
  -10.5330   22.3669   -6.4485 N   0  0  0  0  0  0  0  0  0  0  0  0
  -12.5830   22.2867   -5.6930 H   0  0  0  0  0  0  0  0  0  0  0  0
 16 17  2  0  0  0
 17 21  1  0  0  0
 17 18  1  0  0  0
 18 19  1  0  0  0
 19 14  1  0  0  0
 19 20  1  0  0  0
 14  1  1  0  0  0
  1  2  2  0  0  0
  1  3  2  0  0  0
  1  4  1  0  0  0
  4 10  1  0  0  0
  4  5  2  0  0  0
  5  6  1  0  0  0
  6  7  2  0  0  0
  7  8  1  0  0  0
  7  9  1  0  0  0
  9 10  2  0  0  0
 10 11  1  0  0  0
 11 12  1  0  0  0
 11 13  2  0  0  0
 20 21  1  0  0  0
 14 15  1  0  0  0
 21 22  1  0  0  0
M  CHG 1  11   1
M  CHG 1  12  -1
M  END
> <minimizedAffinity>
-7.19219

$$$$
ZINC000079387582


 19 19  0  0  0  0  0  0  0  0999 V2000
   -6.6352   16.5883   -8.9849 C   0  0  0  0  0  0  0  0  0  0  0  0
   -6.9255   17.8119   -8.4195 C   0  0  0  0  0  0  0  0  0  0  0  0
   -7.4763   16.0497   -9.9170 N   0  0  0  0  0  0  0  0  0  0  0  0
   -7.3800   16.4329  -11.3340 C   0  0  0  0  0  0  0  0  0  0  0  0
   -7.3207   15.1563  -12.1794 C   0  0  0  0  0  0  0  0  0  0  0  0
   -8.4730   14.3043  -11.8589 N   0  0  0  0  0  0  0  0  0  0  0  0
   -8.4747   13.1326  -12.7450 C   0  0  0  0  0  0  0  0  0  0  0  0
   -8.3916   13.8575  -10.4626 C   0  0  0  0  0  0  0  0  0  0  0  0
   -8.5001   15.0655   -9.5330 C   0  0  0  0  0  0  0  0  0  0  0  0
   -7.8576   15.2573   -7.2479 H   0  0  0  0  0  0  0  0  0  0  0  0
   -8.1289   18.4466   -8.7136 C   0  0  0  0  0  0  0  0  0  0  0  0
   -9.1544   18.0904   -8.1647 O   0  0  0  0  0  0  0  0  0  0  0  0
   -8.1613   19.5749   -9.7121 C   0  0  0  0  0  0  0  0  0  0  0  0
   -9.1172   19.2997  -10.6959 F   0  0  0  0  0  0  0  0  0  0  0  0
   -8.4942   20.7663   -9.0588 F   0  0  0  0  0  0  0  0  0  0  0  0
   -6.9027   19.7060  -10.3086 F   0  0  0  0  0  0  0  0  0  0  0  0
   -5.5210   15.9233   -8.6179 O   0  0  0  0  0  0  0  0  0  0  0  0
   -5.7988   14.4569   -6.6936 C   0  0  0  0  0  0  0  0  0  0  0  0
   -5.2655   15.8009   -7.1938 C   0  0  0  0  0  0  0  0  0  0  0  0
 18 19  1  0  0  0
 19 17  1  0  0  0
 17  1  1  0  0  0
  1  2  2  0  0  0
  1  3  1  0  0  0
  2 11  1  0  0  0
 11 12  2  0  0  0
 11 13  1  0  0  0
 13 14  1  0  0  0
 13 15  1  0  0  0
 13 16  1  0  0  0
  3  9  1  0  0  0
  3  4  1  0  0  0
  4  5  1  0  0  0
  5  6  1  0  0  0
  6  7  1  0  0  0
  6  8  1  0  0  0
  8  9  1  0  0  0
  6 10  1  0  0  0
M  CHG 1   6   1
M  END
> <minimizedAffinity>
-5.69655

$$$$
ZINC000067880014


 25 27  0  0  0  0  0  0  0  0999 V2000
   -7.5346   12.9616   -9.3700 N   0  0  0  0  0  0  0  0  0  0  0  0
   -7.1747   12.9088  -10.7934 C   0  0  0  0  0  0  0  0  0  0  0  0
   -8.2786   13.5694  -11.6507 C   0  0  0  0  0  0  0  0  0  0  0  0
   -7.7364   15.0044  -11.8680 C   0  0  0  0  0  0  0  0  0  0  0  0
   -6.2749   14.7946  -12.0301 N   0  0  0  0  0  0  0  0  0  0  0  0
   -5.9079   13.7442  -11.0557 C   0  0  0  0  0  0  0  0  0  0  0  0
   -7.1730   12.9085  -10.7887 H   0  0  0  0  0  0  0  0  0  0  0  0
   -7.1730   12.9085  -10.7887 H   0  0  0  0  0  0  0  0  0  0  0  0
   -7.1730   12.9085  -10.7887 H   0  0  0  0  0  0  0  0  0  0  0  0
   -6.9585   11.4811  -11.2247 C   0  0  0  0  0  0  0  0  0  0  0  0
   -7.5794   11.0298  -12.1718 O   0  0  0  0  0  0  0  0  0  0  0  0
   -6.1625   10.7775  -10.6264 O   0  0  0  0  0  0  0  0  0  0  0  0
   -7.1796   12.9093  -10.7945 H   0  0  0  0  0  0  0  0  0  0  0  0
   -5.5490   16.0371  -11.7350 C   0  0  0  0  0  0  0  0  0  0  0  0
   -6.3001   16.8215  -10.6900 C   0  0  0  0  0  0  0  0  0  0  0  0
   -6.1746   16.4873   -9.3540 C   0  0  0  0  0  0  0  0  0  0  0  0
   -6.8618   17.2043   -8.3939 C   0  0  0  0  0  0  0  0  0  0  0  0
   -7.6785   18.2615   -8.7714 C   0  0  0  0  0  0  0  0  0  0  0  0
   -7.8019   18.5949  -10.1134 C   0  0  0  0  0  0  0  0  0  0  0  0
   -7.1087   17.8774  -11.0685 C   0  0  0  0  0  0  0  0  0  0  0  0
   -8.3768   18.9914   -7.7992 N   0  0  0  0  0  0  0  0  0  0  0  0
   -8.5527   18.6536   -6.5069 C   0  0  0  0  0  0  0  0  0  0  0  0
   -9.2583   19.5952   -5.9345 N   0  0  0  0  0  0  0  0  0  0  0  0
   -9.5502   20.5449   -6.8227 C   0  0  0  0  0  0  0  0  0  0  0  0
   -9.0272   20.2235   -7.9770 N   0  0  0  0  0  0  0  0  0  0  0  0
  2  1  1  0  0  0
  2  6  1  0  0  0
  2 10  1  0  0  0
  2  3  1  0  0  0
 10 11  2  0  0  0
 10 12  1  0  0  0
  3  4  1  0  0  0
  4  5  1  0  0  0
  5 14  1  0  0  0
  5  6  1  0  0  0
 14 15  1  0  0  0
 15 20  1  0  0  0
 15 16  2  0  0  0
 16 17  1  0  0  0
 17 18  2  0  0  0
 18 21  1  0  0  0
 18 19  1  0  0  0
 21 25  1  0  0  0
 21 22  1  0  0  0
 22 23  2  0  0  0
 23 24  1  0  0  0
 24 25  2  0  0  0
 19 20  2  0  0  0
  1  7  1  0  0  0
  1  8  1  0  0  0
 12 13  1  0  0  0
  5  9  1  0  0  0
M  CHG 1   5   1
M  END
> <minimizedAffinity>
-7.90377

$$$$
ZINC000004564869


 27 29  0  0  0  0  0  0  0  0999 V2000
   -7.5240   16.3860   -9.4355 C   0  0  0  0  0  0  0  0  0  0  0  0
   -6.7187   16.8952  -10.4110 C   0  0  0  0  0  0  0  0  0  0  0  0
   -5.9693   16.0630  -11.2570 C   0  0  0  0  0  0  0  0  0  0  0  0
   -5.9966   14.7029  -11.1596 C   0  0  0  0  0  0  0  0  0  0  0  0
   -6.7956   14.0835  -10.1858 C   0  0  0  0  0  0  0  0  0  0  0  0
   -7.0911   12.8719   -9.7788 N   0  0  0  0  0  0  0  0  0  0  0  0
   -7.8765   12.9455   -8.8547 O   0  0  0  0  0  0  0  0  0  0  0  0
   -8.2075   14.0647   -8.5174 N   0  0  0  0  0  0  0  0  0  0  0  0
   -7.5970   14.9376   -9.2722 C   0  0  0  0  0  0  0  0  0  0  0  0
   -8.6075   19.5135   -6.9284 N   0  0  0  0  0  0  0  0  0  0  0  0
   -9.2025   19.4629   -8.2704 C   0  0  0  0  0  0  0  0  0  0  0  0
   -8.3401   18.5829   -9.1780 C   0  0  0  0  0  0  0  0  0  0  0  0
   -8.2570   17.2304   -8.6089 N   0  0  0  0  0  0  0  0  0  0  0  0
   -7.6862   17.2680   -7.2551 C   0  0  0  0  0  0  0  0  0  0  0  0
   -8.5542   18.1587   -6.3636 C   0  0  0  0  0  0  0  0  0  0  0  0
   -9.4264   20.3743   -6.0577 H   0  0  0  0  0  0  0  0  0  0  0  0
   -9.3786   21.8118   -6.5806 C   0  0  0  0  0  0  0  0  0  0  0  0
   -9.4258   20.3729   -6.0625 C   0  0  0  0  0  0  0  0  0  0  0  0
   -5.1818   13.8784  -12.0825 N   0  0  0  0  0  0  0  0  0  0  0  0
   -5.5421   13.7175  -13.2348 O   0  0  0  0  0  0  0  0  0  0  0  0
   -4.1515   13.3615  -11.6888 O   0  0  0  0  0  0  0  0  0  0  0  0
   -5.1664   16.6486  -12.2330 N   0  0  0  0  0  0  0  0  0  0  0  0
  -11.8583   20.0152   -8.7233 H   0  0  0  0  0  0  0  0  0  0  0  0
   -5.4845   17.9868  -12.7372 C   0  0  0  0  0  0  0  0  0  0  0  0
   -6.5715   17.8832  -13.8088 C   0  0  0  0  0  0  0  0  0  0  0  0
   -6.9261   19.1934  -14.2558 O   0  0  0  0  0  0  0  0  0  0  0  0
    1.8884   16.3962  -10.7471 H   0  0  0  0  0  0  0  0  0  0  0  0
 17 18  1  0  0  0
 18 10  1  0  0  0
 10 15  1  0  0  0
 10 11  1  0  0  0
 11 12  1  0  0  0
 12 13  1  0  0  0
 13  1  1  0  0  0
 13 14  1  0  0  0
  1  9  1  0  0  0
  1  2  2  0  0  0
  2  3  1  0  0  0
  3 22  1  0  0  0
  3  4  2  0  0  0
 22 24  1  0  0  0
 24 25  1  0  0  0
 25 26  1  0  0  0
  4 19  1  0  0  0
  4  5  1  0  0  0
 19 20  1  0  0  0
 19 21  2  0  0  0
  5  9  1  0  0  0
  5  6  2  0  0  0
  6  7  1  0  0  0
  7  8  1  0  0  0
  8  9  2  0  0  0
 14 15  1  0  0  0
 10 16  1  0  0  0
 22 23  1  0  0  0
 26 27  1  0  0  0
M  CHG 1  10   1
M  CHG 1  19   1
M  CHG 1  20  -1
M  END
> <minimizedAffinity>
-7.61905

$$$$
ZINC000018101662


 31 33  0  0  0  0  0  0  0  0999 V2000
   -8.7267   17.9544   -7.1909 N   0  0  0  0  0  0  0  0  0  0  0  0
   -8.7835   18.7145   -6.0846 C   0  0  0  0  0  0  0  0  0  0  0  0
   -8.6017   19.9148   -6.0551 O   0  0  0  0  0  0  0  0  0  0  0  0
   -9.1024   17.8716   -4.9015 C   0  0  0  0  0  0  0  0  0  0  0  0
   -9.2230   18.2651   -3.7555 O   0  0  0  0  0  0  0  0  0  0  0  0
   -9.2408   16.5425   -5.3355 C   0  0  0  0  0  0  0  0  0  0  0  0
   -9.5356   15.4428   -4.5572 C   0  0  0  0  0  0  0  0  0  0  0  0
   -9.5040   14.2057   -5.0969 O   0  0  0  0  0  0  0  0  0  0  0  0
   -9.0068   16.5621   -6.8285 C   0  0  0  0  0  0  0  0  0  0  0  0
  -10.1717   16.0960   -7.5125 O   0  0  0  0  0  0  0  0  0  0  0  0
   -7.3872   21.1768  -12.4489 H   0  0  0  0  0  0  0  0  0  0  0  0
   -7.3872   21.1768  -12.4489 H   0  0  0  0  0  0  0  0  0  0  0  0
   -7.9047   19.3348  -11.0368 C   0  0  0  0  0  0  0  0  0  0  0  0
   -9.1013   19.6712  -10.4205 C   0  0  0  0  0  0  0  0  0  0  0  0
   -9.3743   19.2147   -9.1464 C   0  0  0  0  0  0  0  0  0  0  0  0
   -8.4506   18.4179   -8.4819 C   0  0  0  0  0  0  0  0  0  0  0  0
   -7.2531   18.0813   -9.1000 C   0  0  0  0  0  0  0  0  0  0  0  0
   -6.9839   18.5347  -10.3758 C   0  0  0  0  0  0  0  0  0  0  0  0
   -7.6366   19.7849  -12.2915 O   0  0  0  0  0  0  0  0  0  0  0  0
   -7.2709   19.1726  -14.6005 C   0  0  0  0  0  0  0  0  0  0  0  0
   -6.8803   18.9215  -13.1427 C   0  0  0  0  0  0  0  0  0  0  0  0
   -9.8850   15.6180   -3.1363 C   0  0  0  0  0  0  0  0  0  0  0  0
  -11.2008   15.9153   -2.7677 C   0  0  0  0  0  0  0  0  0  0  0  0
  -11.5199   16.0778   -1.4363 C   0  0  0  0  0  0  0  0  0  0  0  0
  -10.5416   15.9480   -0.4656 C   0  0  0  0  0  0  0  0  0  0  0  0
   -9.2370   15.6540   -0.8225 C   0  0  0  0  0  0  0  0  0  0  0  0
   -8.9036   15.4823   -2.1494 C   0  0  0  0  0  0  0  0  0  0  0  0
   -7.8227   15.6975   -7.1767 C   0  0  0  0  0  0  0  0  0  0  0  0
   -7.9587   14.7605   -7.9273 O   0  0  0  0  0  0  0  0  0  0  0  0
   -6.6168   15.9683   -6.6529 O   0  0  0  0  0  0  0  0  0  0  0  0
   -5.4782   15.2725   -7.2252 C   0  0  0  0  0  0  0  0  0  0  0  0
 20 21  1  0  0  0
 21 19  1  0  0  0
 19 13  1  0  0  0
 13 18  2  0  0  0
 13 14  1  0  0  0
 14 15  2  0  0  0
 15 16  1  0  0  0
 16  1  1  0  0  0
 16 17  2  0  0  0
  1  9  1  0  0  0
  1  2  1  0  0  0
  2  3  2  0  0  0
  2  4  1  0  0  0
  4  5  2  0  0  0
  4  6  1  0  0  0
  6  7  2  0  0  0
  6  9  1  0  0  0
  7  8  1  0  0  0
  7 22  1  0  0  0
 22 27  1  0  0  0
 22 23  2  0  0  0
 23 24  1  0  0  0
 24 25  2  0  0  0
 25 26  1  0  0  0
 26 27  2  0  0  0
  9 10  1  0  0  0
  9 28  1  0  0  0
 28 29  2  0  0  0
 28 30  1  0  0  0
 30 31  1  0  0  0
 17 18  1  0  0  0
  8 11  1  0  0  0
 10 12  1  0  0  0
M  END
> <minimizedAffinity>
-7.50960

$$$$
ZINC000073446456


 29 31  0  0  0  0  0  0  0  0999 V2000
   -7.9872   17.7931   -9.5301 N   0  0  0  0  0  0  0  0  0  0  0  0
   -7.6164   17.6785   -8.2394 C   0  0  0  0  0  0  0  0  0  0  0  0
   -6.5100   17.2585   -7.9595 O   0  0  0  0  0  0  0  0  0  0  0  0
   -6.7799   16.4830  -16.6509 H   0  0  0  0  0  0  0  0  0  0  0  0
   -8.5523   18.0622   -7.1666 C   0  0  0  0  0  0  0  0  0  0  0  0
   -8.6721   19.2583   -6.6212 N   0  0  0  0  0  0  0  0  0  0  0  0
   -9.5831   19.2441   -5.7156 N   0  0  0  0  0  0  0  0  0  0  0  0
  -10.1255   17.9997   -5.6163 C   0  0  0  0  0  0  0  0  0  0  0  0
   -9.4976   17.2172   -6.5308 C   0  0  0  0  0  0  0  0  0  0  0  0
   -9.7219   15.8983   -6.7795 O   0  0  0  0  0  0  0  0  0  0  0  0
   -1.8756   20.5967  -13.8438 H   0  0  0  0  0  0  0  0  0  0  0  0
   -9.9636   20.3491   -4.9430 C   0  0  0  0  0  0  0  0  0  0  0  0
   -9.6017   20.4196   -3.6042 C   0  0  0  0  0  0  0  0  0  0  0  0
   -9.9779   21.5105   -2.8453 C   0  0  0  0  0  0  0  0  0  0  0  0
  -10.7145   22.5316   -3.4172 C   0  0  0  0  0  0  0  0  0  0  0  0
  -11.0769   22.4639   -4.7500 C   0  0  0  0  0  0  0  0  0  0  0  0
  -10.6984   21.3786   -5.5159 C   0  0  0  0  0  0  0  0  0  0  0  0
   -6.2525   15.5133  -11.8494 C   0  0  0  0  0  0  0  0  0  0  0  0
   -5.4632   16.4194  -12.5594 C   0  0  0  0  0  0  0  0  0  0  0  0
   -5.5189   17.7656  -12.2597 C   0  0  0  0  0  0  0  0  0  0  0  0
   -6.3541   18.2213  -11.2574 C   0  0  0  0  0  0  0  0  0  0  0  0
   -7.1438   17.3269  -10.5440 C   0  0  0  0  0  0  0  0  0  0  0  0
   -7.0998   15.9737  -10.8415 C   0  0  0  0  0  0  0  0  0  0  0  0
   -6.8057   13.1777  -11.3647 N   0  0  0  0  0  0  0  0  0  0  0  0
   -6.1952   14.0706  -12.1687 C   0  0  0  0  0  0  0  0  0  0  0  0
   -5.5974   13.6900  -13.1562 O   0  0  0  0  0  0  0  0  0  0  0  0
   -6.8569   16.4744   -6.4585 H   0  0  0  0  0  0  0  0  0  0  0  0
   -5.6405   11.0878  -10.8587 C   0  0  0  0  0  0  0  0  0  0  0  0
   -6.7489   11.7484  -11.6810 C   0  0  0  0  0  0  0  0  0  0  0  0
 28 29  1  0  0  0
 29 24  1  0  0  0
 24 25  1  0  0  0
 25 26  2  0  0  0
 25 18  1  0  0  0
 18 23  2  0  0  0
 18 19  1  0  0  0
 19 20  2  0  0  0
 20 21  1  0  0  0
 21 22  2  0  0  0
 22  1  1  0  0  0
 22 23  1  0  0  0
  1  2  1  0  0  0
  2  3  2  0  0  0
  2  5  1  0  0  0
  5  9  1  0  0  0
  5  6  2  0  0  0
  6  7  1  0  0  0
  7 12  1  0  0  0
  7  8  1  0  0  0
 12 17  1  0  0  0
 12 13  2  0  0  0
 13 14  1  0  0  0
 14 15  2  0  0  0
 15 16  1  0  0  0
 16 17  2  0  0  0
  8  9  2  0  0  0
  9 10  1  0  0  0
 24 27  1  0  0  0
  1  4  1  0  0  0
 10 11  1  0  0  0
M  END
> <minimizedAffinity>
-7.86052

$$$$
ZINC000075250918


 23 24  0  0  0  0  0  0  0  0999 V2000
   -7.4426   17.1239   -9.4836 C   0  0  0  0  0  0  0  0  0  0  0  0
   -6.2801   17.8304   -9.0460 O   0  0  0  0  0  0  0  0  0  0  0  0
   -8.3912   17.0080   -8.3055 C   0  0  0  0  0  0  0  0  0  0  0  0
   -8.7529   15.8137   -7.9157 N   0  0  0  0  0  0  0  0  0  0  0  0
   -8.3484   14.7375   -8.4762 N   0  0  0  0  0  0  0  0  0  0  0  0
   -7.4841   14.7014   -9.5569 C   0  0  0  0  0  0  0  0  0  0  0  0
   -6.9481   13.6782  -10.2799 C   0  0  0  0  0  0  0  0  0  0  0  0
   -6.1324   14.2312  -11.2703 C   0  0  0  0  0  0  0  0  0  0  0  0
   -6.1681   15.5362  -11.1577 N   0  0  0  0  0  0  0  0  0  0  0  0
   -7.0070   15.8591  -10.0926 N   0  0  0  0  0  0  0  0  0  0  0  0
   -8.0917   17.9078  -10.4923 H   0  0  0  0  0  0  0  0  0  0  0  0
   -8.0917   17.9078  -10.4923 H   0  0  0  0  0  0  0  0  0  0  0  0
   -8.8702   18.1573   -7.6490 C   0  0  0  0  0  0  0  0  0  0  0  0
   -8.6122   18.3464   -6.1763 C   0  0  0  0  0  0  0  0  0  0  0  0
   -9.4915   18.9967   -8.2695 O   0  0  0  0  0  0  0  0  0  0  0  0
   -7.1886   12.2348  -10.0560 N   0  0  0  0  0  0  0  0  0  0  0  0
   -7.7769   11.5779  -10.8962 O   0  0  0  0  0  0  0  0  0  0  0  0
   -6.7983   11.7042   -9.0314 O   0  0  0  0  0  0  0  0  0  0  0  0
   -5.3588   13.4710  -12.2777 N   0  0  0  0  0  0  0  0  0  0  0  0
   -4.4736   12.7139  -11.9215 O   0  0  0  0  0  0  0  0  0  0  0  0
   -5.6074   13.6025  -13.4628 O   0  0  0  0  0  0  0  0  0  0  0  0
   -7.2592   18.9448  -11.0315 C   0  0  0  0  0  0  0  0  0  0  0  0
   -8.0814   17.9071  -10.4938 O   0  0  0  0  0  0  0  0  0  0  0  0
 22 23  1  0  0  0
  1 23  1  0  0  0
  1 10  1  0  0  0
  1  2  1  0  0  0
  1  3  1  0  0  0
  3 13  1  0  0  0
  3  4  2  0  0  0
 13 14  1  0  0  0
 13 15  2  0  0  0
  4  5  1  0  0  0
  5  6  1  0  0  0
  6 10  1  0  0  0
  6  7  2  0  0  0
  7 16  1  0  0  0
  7  8  1  0  0  0
 16 17  1  0  0  0
 16 18  2  0  0  0
  8 19  1  0  0  0
  8  9  2  0  0  0
 19 20  1  0  0  0
 19 21  2  0  0  0
  9 10  1  0  0  0
  2 11  1  0  0  0
  5 12  1  0  0  0
M  CHG 1  16   1
M  CHG 1  17  -1
M  CHG 1  19   1
M  CHG 1  20  -1
M  END
> <minimizedAffinity>
-7.20127

$$$$
ZINC000224609397


 28 30  0  0  0  0  0  0  0  0999 V2000
   -8.1891   13.3001  -10.3989 N   0  0  0  0  0  0  0  0  0  0  0  0
   -2.6490   12.2400  -12.1309 H   0  0  0  0  0  0  0  0  0  0  0  0
   -7.7744   13.6172  -11.9705 S   0  0  0  0  0  0  0  0  0  0  0  0
   -8.9878   13.8868  -12.6591 O   0  0  0  0  0  0  0  0  0  0  0  0
   -6.8700   12.5931  -12.3613 O   0  0  0  0  0  0  0  0  0  0  0  0
   -6.7900   17.5112  -11.8576 C   0  0  0  0  0  0  0  0  0  0  0  0
   -5.4138   17.4796  -11.9820 C   0  0  0  0  0  0  0  0  0  0  0  0
   -4.7583   16.2684  -12.1033 C   0  0  0  0  0  0  0  0  0  0  0  0
   -5.4790   15.0891  -12.0997 C   0  0  0  0  0  0  0  0  0  0  0  0
   -6.8556   15.1206  -11.9744 C   0  0  0  0  0  0  0  0  0  0  0  0
   -7.5105   16.3312  -11.8488 C   0  0  0  0  0  0  0  0  0  0  0  0
   -7.5504   19.5666  -12.6787 O   0  0  0  0  0  0  0  0  0  0  0  0
   -7.4919   18.8079  -11.7277 N   0  0  0  0  0  0  0  0  0  0  0  0
   -8.0150   19.1140  -10.6712 O   0  0  0  0  0  0  0  0  0  0  0  0
   -7.1522   13.2396   -9.3657 C   0  0  0  0  0  0  0  0  0  0  0  0
   -7.0088   14.5927   -8.7181 C   0  0  0  0  0  0  0  0  0  0  0  0
   -5.7580   15.0576   -8.3581 C   0  0  0  0  0  0  0  0  0  0  0  0
   -5.6264   16.2990   -7.7640 C   0  0  0  0  0  0  0  0  0  0  0  0
   -6.7457   17.0754   -7.5304 C   0  0  0  0  0  0  0  0  0  0  0  0
   -7.9969   16.6109   -7.8913 C   0  0  0  0  0  0  0  0  0  0  0  0
   -8.1279   15.3716   -8.4892 C   0  0  0  0  0  0  0  0  0  0  0  0
   -9.2175   17.4573   -7.6363 C   0  0  0  0  0  0  0  0  0  0  0  0
   -8.8283   18.6701   -6.9047 N   0  0  0  0  0  0  0  0  0  0  0  0
   -9.3451   19.8762   -7.6007 C   0  0  0  0  0  0  0  0  0  0  0  0
   -9.3644   20.9494   -6.4833 C   0  0  0  0  0  0  0  0  0  0  0  0
   -9.8005   20.1439   -5.2379 C   0  0  0  0  0  0  0  0  0  0  0  0
   -9.4515   18.6787   -5.5635 C   0  0  0  0  0  0  0  0  0  0  0  0
  -12.7049   18.0848  -16.4073 H   0  0  0  0  0  0  0  0  0  0  0  0
 12 13  1  0  0  0
 13 14  2  0  0  0
 13  6  1  0  0  0
  6 11  2  0  0  0
  6  7  1  0  0  0
  7  8  2  0  0  0
  8  9  1  0  0  0
  9 10  2  0  0  0
 10  3  1  0  0  0
 10 11  1  0  0  0
  3  4  2  0  0  0
  3  5  2  0  0  0
  3  1  1  0  0  0
  1 15  1  0  0  0
 15 16  1  0  0  0
 16 21  1  0  0  0
 16 17  2  0  0  0
 17 18  1  0  0  0
 18 19  2  0  0  0
 19 20  1  0  0  0
 20 22  1  0  0  0
 20 21  2  0  0  0
 22 23  1  0  0  0
 23 27  1  0  0  0
 23 24  1  0  0  0
 24 25  1  0  0  0
 25 26  1  0  0  0
 26 27  1  0  0  0
  1  2  1  0  0  0
 23 28  1  0  0  0
M  CHG 1  12  -1
M  CHG 1  13   1
M  CHG 1  23   1
M  END
> <minimizedAffinity>
-7.54751

$$$$
ZINC000101304031


 28 30  0  0  0  0  0  0  0  0999 V2000
   -7.1983   16.8495  -12.2277 N   0  0  0  0  0  0  0  0  0  0  0  0
   -7.1756   15.6023  -11.7721 C   0  0  0  0  0  0  0  0  0  0  0  0
   -8.1732   14.3006  -12.3334 S   0  0  0  0  0  0  0  0  0  0  0  0
   -7.4630   13.0725  -11.2050 C   0  0  0  0  0  0  0  0  0  0  0  0
   -7.1888   11.6938  -11.7907 C   0  0  0  0  0  0  0  0  0  0  0  0
   -5.6198   11.1821  -10.9748 S   0  0  0  0  0  0  0  0  0  0  0  0
   -5.8981   10.1884   -9.9979 O   0  0  0  0  0  0  0  0  0  0  0  0
   -4.6287   10.9444  -11.9649 O   0  0  0  0  0  0  0  0  0  0  0  0
   -5.2790   12.7908  -10.1336 C   0  0  0  0  0  0  0  0  0  0  0  0
   -6.0648   13.7442  -11.0006 C   0  0  0  0  0  0  0  0  0  0  0  0
   -6.3449   15.1195  -10.7701 N   0  0  0  0  0  0  0  0  0  0  0  0
   -6.2763   17.7213  -11.8266 C   0  0  0  0  0  0  0  0  0  0  0  0
   -5.1495   17.6655  -12.2792 O   0  0  0  0  0  0  0  0  0  0  0  0
   -6.6291   18.7777  -10.8115 C   0  0  0  0  0  0  0  0  0  0  0  0
   -8.0632   19.2548  -11.0491 C   0  0  0  0  0  0  0  0  0  0  0  0
   -8.3390   20.4897  -10.1889 C   0  0  0  0  0  0  0  0  0  0  0  0
   -9.1641   20.8168   -7.9964 O   0  0  0  0  0  0  0  0  0  0  0  0
   -9.1334   20.0876   -8.9731 C   0  0  0  0  0  0  0  0  0  0  0  0
   -9.7495   19.0354   -8.9680 O   0  0  0  0  0  0  0  0  0  0  0  0
   -9.3572   20.5011   -8.6463 H   0  0  0  0  0  0  0  0  0  0  0  0
   -5.8256   15.9120   -9.6527 C   0  0  0  0  0  0  0  0  0  0  0  0
   -6.9152   16.1153   -8.6318 C   0  0  0  0  0  0  0  0  0  0  0  0
   -8.0124   15.2744   -8.6154 C   0  0  0  0  0  0  0  0  0  0  0  0
   -9.0121   15.4602   -7.6793 C   0  0  0  0  0  0  0  0  0  0  0  0
   -8.9145   16.4880   -6.7583 C   0  0  0  0  0  0  0  0  0  0  0  0
  -10.1694   16.7217   -5.5817 Cl  0  0  0  0  0  0  0  0  0  0  0  0
   -7.8162   17.3292   -6.7750 C   0  0  0  0  0  0  0  0  0  0  0  0
   -6.8144   17.1389   -7.7081 C   0  0  0  0  0  0  0  0  0  0  0  0
 17 18  2  0  0  0
 18 19  1  0  0  0
 18 16  1  0  0  0
 16 15  1  0  0  0
 15 14  1  0  0  0
 14 12  1  0  0  0
 12 13  2  0  0  0
 12  1  1  0  0  0
  1  2  2  0  0  0
  2 11  1  0  0  0
  2  3  1  0  0  0
  3  4  1  0  0  0
  4 10  1  0  0  0
  4  5  1  0  0  0
  5  6  1  0  0  0
  6  7  2  0  0  0
  6  8  2  0  0  0
  6  9  1  0  0  0
  9 10  1  0  0  0
 10 11  1  0  0  0
 11 21  1  0  0  0
 21 22  1  0  0  0
 22 28  1  0  0  0
 22 23  2  0  0  0
 23 24  1  0  0  0
 24 25  2  0  0  0
 25 26  1  0  0  0
 25 27  1  0  0  0
 27 28  2  0  0  0
 19 20  1  0  0  0
M  END
> <minimizedAffinity>
-7.60687

$$$$
ZINC000101994133


 35 39  0  0  0  0  0  0  0  0999 V2000
  -10.2699   16.9840   -3.5269 N   0  0  0  0  0  0  0  0  0  0  0  0
  -10.8779   18.1754   -3.4922 C   0  0  0  0  0  0  0  0  0  0  0  0
  -11.4165   18.6588   -2.5197 O   0  0  0  0  0  0  0  0  0  0  0  0
  -10.7884   18.8250   -4.8542 C   0  0  0  0  0  0  0  0  0  0  0  0
  -10.0012   17.7832   -5.6973 C   0  0  0  0  0  0  0  0  0  0  0  0
   -9.7385   16.6659   -4.7128 C   0  0  0  0  0  0  0  0  0  0  0  0
   -9.1453   15.6383   -4.9616 O   0  0  0  0  0  0  0  0  0  0  0  0
   -8.6716   18.4840   -6.0497 C   0  0  0  0  0  0  0  0  0  0  0  0
   -8.9733   19.9376   -5.9657 N   0  0  0  0  0  0  0  0  0  0  0  0
   -9.8782   20.0563   -4.7847 C   0  0  0  0  0  0  0  0  0  0  0  0
  -10.6689   21.3355   -4.8273 C   0  0  0  0  0  0  0  0  0  0  0  0
  -11.4360   21.6840   -5.6999 O   0  0  0  0  0  0  0  0  0  0  0  0
  -10.3604   22.0184   -3.7080 N   0  0  0  0  0  0  0  0  0  0  0  0
   -9.4419   21.3334   -2.9094 C   0  0  0  0  0  0  0  0  0  0  0  0
   -8.8622   21.6763   -1.6905 C   0  0  0  0  0  0  0  0  0  0  0  0
   -7.9666   20.8206   -1.0828 C   0  0  0  0  0  0  0  0  0  0  0  0
   -7.6369   19.6172   -1.6781 C   0  0  0  0  0  0  0  0  0  0  0  0
   -8.2074   19.2692   -2.8901 C   0  0  0  0  0  0  0  0  0  0  0  0
   -9.1009   20.1200   -3.5007 C   0  0  0  0  0  0  0  0  0  0  0  0
   -9.9540   14.2898   -0.3772 H   0  0  0  0  0  0  0  0  0  0  0  0
   -9.9540   14.2898   -0.3772 H   0  0  0  0  0  0  0  0  0  0  0  0
   -9.9540   14.2898   -0.3772 H   0  0  0  0  0  0  0  0  0  0  0  0
   -9.9499   13.5683    0.9947 C   0  0  0  0  0  0  0  0  0  0  0  0
  -10.0349   14.4752   -0.2059 C   0  0  0  0  0  0  0  0  0  0  0  0
   -8.9744   15.3047   -0.5203 C   0  0  0  0  0  0  0  0  0  0  0  0
   -9.0496   16.1374   -1.6200 C   0  0  0  0  0  0  0  0  0  0  0  0
  -10.1909   16.1404   -2.4099 C   0  0  0  0  0  0  0  0  0  0  0  0
  -11.2541   15.3058   -2.0920 C   0  0  0  0  0  0  0  0  0  0  0  0
  -11.1711   14.4718   -0.9944 C   0  0  0  0  0  0  0  0  0  0  0  0
  -12.3038   13.5814   -0.6550 N   0  0  0  0  0  0  0  0  0  0  0  0
  -13.2065   13.9878    0.0545 O   0  0  0  0  0  0  0  0  0  0  0  0
  -12.3331   12.4423   -1.0854 O   0  0  0  0  0  0  0  0  0  0  0  0
   -8.2318   18.1100   -7.4666 C   0  0  0  0  0  0  0  0  0  0  0  0
   -7.1433   17.0371   -7.3962 C   0  0  0  0  0  0  0  0  0  0  0  0
   -9.4315   17.5691   -8.2469 C   0  0  0  0  0  0  0  0  0  0  0  0
 23 24  1  0  0  0
 24 29  2  0  0  0
 24 25  1  0  0  0
 25 26  2  0  0  0
 26 27  1  0  0  0
 27  1  1  0  0  0
 27 28  2  0  0  0
  1  6  1  0  0  0
  1  2  1  0  0  0
  2  3  2  0  0  0
  2  4  1  0  0  0
  4 10  1  0  0  0
  4  5  1  0  0  0
  5  6  1  0  0  0
  5  8  1  0  0  0
  6  7  2  0  0  0
  8 33  1  0  0  0
  8  9  1  0  0  0
 33 34  1  0  0  0
 33 35  1  0  0  0
 10  9  1  0  0  0
 10 19  1  0  0  0
 10 11  1  0  0  0
 11 12  2  0  0  0
 11 13  1  0  0  0
 13 14  1  0  0  0
 14 19  2  0  0  0
 14 15  1  0  0  0
 15 16  2  0  0  0
 16 17  1  0  0  0
 17 18  2  0  0  0
 18 19  1  0  0  0
 28 29  1  0  0  0
 29 30  1  0  0  0
 30 31  1  0  0  0
 30 32  2  0  0  0
  9 20  1  0  0  0
  9 21  1  0  0  0
 13 22  1  0  0  0
M  CHG 1   9   1
M  CHG 1  30   1
M  CHG 1  31  -1
M  END
> <minimizedAffinity>
-6.99557

$$$$
ZINC000229903386


 30 33  0  0  0  0  0  0  0  0999 V2000
   -6.5670   14.1031  -10.6311 N   0  0  0  0  0  0  0  0  0  0  0  0
   -5.4485   14.2717   -9.9097 C   0  0  0  0  0  0  0  0  0  0  0  0
   -4.4622   13.6178  -10.1849 O   0  0  0  0  0  0  0  0  0  0  0  0
   -5.3915   15.1444   -8.8925 N   0  0  0  0  0  0  0  0  0  0  0  0
   -6.4466   15.8924   -8.5403 C   0  0  0  0  0  0  0  0  0  0  0  0
   -6.3368   16.6663   -7.6135 O   0  0  0  0  0  0  0  0  0  0  0  0
   -7.7611   15.7994   -9.2613 C   0  0  0  0  0  0  0  0  0  0  0  0
   -8.8588   15.3935   -8.2738 C   0  0  0  0  0  0  0  0  0  0  0  0
   -9.1451   16.5416   -7.3388 C   0  0  0  0  0  0  0  0  0  0  0  0
   -9.8344   16.2743   -6.1670 C   0  0  0  0  0  0  0  0  0  0  0  0
  -10.1254   17.2904   -5.2781 C   0  0  0  0  0  0  0  0  0  0  0  0
   -9.7278   18.5848   -5.5577 C   0  0  0  0  0  0  0  0  0  0  0  0
   -9.0408   18.8580   -6.7210 C   0  0  0  0  0  0  0  0  0  0  0  0
   -8.7410   17.8349   -7.6223 C   0  0  0  0  0  0  0  0  0  0  0  0
   -8.0330   18.1735   -8.7726 N   0  0  0  0  0  0  0  0  0  0  0  0
   -8.4083   19.5078   -9.2585 C   0  0  0  0  0  0  0  0  0  0  0  0
   -7.4465   19.9338  -10.3705 C   0  0  0  0  0  0  0  0  0  0  0  0
   -7.5076   18.9141  -11.5111 C   0  0  0  0  0  0  0  0  0  0  0  0
   -7.1586   17.5263  -10.9657 C   0  0  0  0  0  0  0  0  0  0  0  0
   -8.1281   17.1728   -9.8349 C   0  0  0  0  0  0  0  0  0  0  0  0
   -7.6856   14.7973  -10.3775 C   0  0  0  0  0  0  0  0  0  0  0  0
   -8.6663   14.6049  -11.0636 O   0  0  0  0  0  0  0  0  0  0  0  0
   -4.7668   14.2669  -12.8964 H   0  0  0  0  0  0  0  0  0  0  0  0
  -10.8608   16.9942   -4.0283 N   0  0  0  0  0  0  0  0  0  0  0  0
  -11.3178   15.8809   -3.8398 O   0  0  0  0  0  0  0  0  0  0  0  0
  -11.0092   17.8636   -3.1884 O   0  0  0  0  0  0  0  0  0  0  0  0
   -6.5642   13.1366  -11.7319 C   0  0  0  0  0  0  0  0  0  0  0  0
   -7.1693   11.8157  -11.2524 C   0  0  0  0  0  0  0  0  0  0  0  0
   -5.2138   10.4331  -11.1546 C   0  0  0  0  0  0  0  0  0  0  0  0
   -6.4434   10.7246  -11.8220 O   0  0  0  0  0  0  0  0  0  0  0  0
 29 30  1  0  0  0
 30 28  1  0  0  0
 28 27  1  0  0  0
 27  1  1  0  0  0
  1 21  1  0  0  0
  1  2  1  0  0  0
  2  3  2  0  0  0
  2  4  1  0  0  0
  4  5  1  0  0  0
  5  6  2  0  0  0
  7  5  1  0  0  0
  7 20  1  0  0  0
  7  8  1  0  0  0
  7 21  1  0  0  0
  8  9  1  0  0  0
  9 14  2  0  0  0
  9 10  1  0  0  0
 10 11  2  0  0  0
 11 24  1  0  0  0
 11 12  1  0  0  0
 24 25  1  0  0  0
 24 26  2  0  0  0
 12 13  2  0  0  0
 13 14  1  0  0  0
 14 15  1  0  0  0
 15 20  1  0  0  0
 15 16  1  0  0  0
 16 17  1  0  0  0
 17 18  1  0  0  0
 18 19  1  0  0  0
 19 20  1  0  0  0
 21 22  2  0  0  0
  4 23  1  0  0  0
M  CHG 1  24   1
M  CHG 1  25  -1
M  END
> <minimizedAffinity>
-8.51297

$$$$
ZINC000061999358


 31 36  0  0  0  0  0  0  0  0999 V2000
   -7.5142   14.7499  -12.3072 C   0  0  0  0  0  0  0  0  0  0  0  0
   -6.7483   15.8283  -11.5380 C   0  0  0  0  0  0  0  0  0  0  0  0
   -5.2477   15.5888  -11.6911 C   0  0  0  0  0  0  0  0  0  0  0  0
   -4.9068   14.1670  -11.2385 C   0  0  0  0  0  0  0  0  0  0  0  0
   -5.2479   14.0030   -9.7546 C   0  0  0  0  0  0  0  0  0  0  0  0
   -6.7158   14.3706   -9.5312 C   0  0  0  0  0  0  0  0  0  0  0  0
   -7.4061   13.8481   -8.2741 C   0  0  0  0  0  0  0  0  0  0  0  0
   -7.6863   13.3280   -9.5760 O   0  0  0  0  0  0  0  0  0  0  0  0
   -7.1234   15.7549  -10.0510 C   0  0  0  0  0  0  0  0  0  0  0  0
   -6.3209   16.8165   -9.2957 C   0  0  0  0  0  0  0  0  0  0  0  0
   -6.5761   18.2023   -9.8265 C   0  0  0  0  0  0  0  0  0  0  0  0
   -6.4095   18.3227  -11.3550 C   0  0  0  0  0  0  0  0  0  0  0  0
   -7.1246   17.1978  -12.0822 C   0  0  0  0  0  0  0  0  0  0  0  0
   -7.1808   19.5558  -11.6237 O   0  0  0  0  0  0  0  0  0  0  0  0
   -8.3087   19.4901  -10.8836 C   0  0  0  0  0  0  0  0  0  0  0  0
   -9.3649   20.0045  -11.1656 O   0  0  0  0  0  0  0  0  0  0  0  0
   -8.0373   18.6560   -9.6555 C   0  0  0  0  0  0  0  0  0  0  0  0
   -8.1682   19.5042   -8.3888 C   0  0  0  0  0  0  0  0  0  0  0  0
   -8.4631   18.6322   -7.2440 N   0  0  0  0  0  0  0  0  0  0  0  0
   -9.4536   17.6225   -7.6402 C   0  0  0  0  0  0  0  0  0  0  0  0
   -9.7470   16.7022   -6.4533 C   0  0  0  0  0  0  0  0  0  0  0  0
  -10.2593   17.5022   -5.3318 N   0  0  0  0  0  0  0  0  0  0  0  0
   -9.2885   18.5338   -4.9401 C   0  0  0  0  0  0  0  0  0  0  0  0
   -8.9991   19.4389   -6.1396 C   0  0  0  0  0  0  0  0  0  0  0  0
   -5.4708   23.7537   -7.9934 H   0  0  0  0  0  0  0  0  0  0  0  0
  -10.5869   16.6954   -4.2560 C   0  0  0  0  0  0  0  0  0  0  0  0
  -11.3148   17.1973   -3.2691 N   0  0  0  0  0  0  0  0  0  0  0  0
  -11.6455   16.4533   -2.2268 C   0  0  0  0  0  0  0  0  0  0  0  0
  -11.2213   15.1348   -2.1754 C   0  0  0  0  0  0  0  0  0  0  0  0
  -10.4615   14.6418   -3.2246 C   0  0  0  0  0  0  0  0  0  0  0  0
  -10.1698   15.4379   -4.2398 N   0  0  0  0  0  0  0  0  0  0  0  0
  2  1  1  0  0  0
  2  9  1  0  0  0
  2 13  1  0  0  0
  2  3  1  0  0  0
  3  4  1  0  0  0
  4  5  1  0  0  0
  6  5  1  0  0  0
  6  8  1  0  0  0
  6  7  1  0  0  0
  6  9  1  0  0  0
  7  8  1  0  0  0
  9 10  1  0  0  0
 10 11  1  0  0  0
 11 17  1  0  0  0
 11 12  1  0  0  0
 12 13  1  0  0  0
 12 14  1  0  0  0
 14 15  1  0  0  0
 15 16  2  0  0  0
 15 17  1  0  0  0
 17 18  1  0  0  0
 18 19  1  0  0  0
 19 24  1  0  0  0
 19 20  1  0  0  0
 20 21  1  0  0  0
 21 22  1  0  0  0
 22 26  1  0  0  0
 22 23  1  0  0  0
 26 31  1  0  0  0
 26 27  2  0  0  0
 27 28  1  0  0  0
 28 29  2  0  0  0
 29 30  1  0  0  0
 30 31  2  0  0  0
 23 24  1  0  0  0
 19 25  1  0  0  0
M  CHG 1  19   1
M  END
> <minimizedAffinity>
-8.86065

$$$$
ZINC000242288003


 23 25  0  0  0  0  0  0  0  0999 V2000
   -7.5624   18.0221  -10.6877 C   0  0  0  0  0  0  0  0  0  0  0  0
   -7.6052   17.2350   -9.4481 N   0  0  0  0  0  0  0  0  0  0  0  0
   -8.1645   17.0624   -9.6088 H   0  0  0  0  0  0  0  0  0  0  0  0
   -7.6432   18.1420   -8.2931 C   0  0  0  0  0  0  0  0  0  0  0  0
   -7.9912   17.4764   -6.9871 C   0  0  0  0  0  0  0  0  0  0  0  0
   -7.9058   15.9837   -6.6779 C   0  0  0  0  0  0  0  0  0  0  0  0
   -9.3576   15.7299   -6.1623 C   0  0  0  0  0  0  0  0  0  0  0  0
  -10.1713   16.7900   -6.7375 O   0  0  0  0  0  0  0  0  0  0  0  0
   -9.4038   17.4283   -7.7043 C   0  0  0  0  0  0  0  0  0  0  0  0
   -9.0290   18.8290   -8.0525 C   0  0  0  0  0  0  0  0  0  0  0  0
   -9.0586   19.8068   -6.8762 C   0  0  0  0  0  0  0  0  0  0  0  0
   -9.6993   19.3717   -9.3163 C   0  0  0  0  0  0  0  0  0  0  0  0
   -6.4088   16.3865   -9.3652 C   0  0  0  0  0  0  0  0  0  0  0  0
   -6.3359   15.5009  -10.5823 C   0  0  0  0  0  0  0  0  0  0  0  0
   -5.5048   15.8396  -11.6364 C   0  0  0  0  0  0  0  0  0  0  0  0
   -4.7588   16.9643  -11.5747 F   0  0  0  0  0  0  0  0  0  0  0  0
   -5.4385   15.0246  -12.7541 C   0  0  0  0  0  0  0  0  0  0  0  0
   -6.2016   13.8743  -12.8158 C   0  0  0  0  0  0  0  0  0  0  0  0
   -7.0316   13.5373  -11.7626 C   0  0  0  0  0  0  0  0  0  0  0  0
   -7.0944   14.3470  -10.6441 C   0  0  0  0  0  0  0  0  0  0  0  0
   -7.9832   13.9848   -9.5176 N   0  0  0  0  0  0  0  0  0  0  0  0
   -7.5603   13.2985   -8.6045 O   0  0  0  0  0  0  0  0  0  0  0  0
   -9.1375   14.3731   -9.5033 O   0  0  0  0  0  0  0  0  0  0  0  0
  1  2  1  0  0  0
  2 13  1  0  0  0
  2  4  1  0  0  0
 13 14  1  0  0  0
 14 20  1  0  0  0
 14 15  2  0  0  0
 15 16  1  0  0  0
 15 17  1  0  0  0
 17 18  2  0  0  0
 18 19  1  0  0  0
 19 20  2  0  0  0
 20 21  1  0  0  0
 21 22  1  0  0  0
 21 23  2  0  0  0
  4 10  1  0  0  0
  4  5  1  0  0  0
  5  9  1  0  0  0
  5  6  1  0  0  0
  6  7  1  0  0  0
  7  8  1  0  0  0
  8  9  1  0  0  0
  9 10  1  0  0  0
 10 11  1  0  0  0
 10 12  1  0  0  0
  2  3  1  0  0  0
M  CHG 1   2   1
M  CHG 1  21   1
M  CHG 1  22  -1
M  END
> <minimizedAffinity>
-7.14823

$$$$
ZINC000009373621


 30 32  0  0  0  0  0  0  0  0999 V2000
   -6.9616   18.4845  -10.3863 C   0  0  0  0  0  0  0  0  0  0  0  0
   -6.7694   18.2125  -11.7303 C   0  0  0  0  0  0  0  0  0  0  0  0
   -6.2532   16.9904  -12.1221 C   0  0  0  0  0  0  0  0  0  0  0  0
   -5.9284   16.0376  -11.1751 C   0  0  0  0  0  0  0  0  0  0  0  0
   -6.1172   16.3013   -9.8310 C   0  0  0  0  0  0  0  0  0  0  0  0
   -6.6289   17.5266   -9.4305 C   0  0  0  0  0  0  0  0  0  0  0  0
   -5.2712   14.4832  -11.6817 S   0  0  0  0  0  0  0  0  0  0  0  0
   -5.3037   14.4777  -13.1024 O   0  0  0  0  0  0  0  0  0  0  0  0
   -4.0810   14.2867  -10.9307 O   0  0  0  0  0  0  0  0  0  0  0  0
   -6.3356   13.3157  -11.1853 N   0  0  0  0  0  0  0  0  0  0  0  0
   -7.7762   13.4379  -11.4596 C   0  0  0  0  0  0  0  0  0  0  0  0
   -8.2595   12.1305  -12.0975 C   0  0  0  0  0  0  0  0  0  0  0  0
   -7.8607   11.0305  -11.2760 O   0  0  0  0  0  0  0  0  0  0  0  0
   -6.4450   10.8817  -11.1440 C   0  0  0  0  0  0  0  0  0  0  0  0
   -5.8680   12.1225  -10.4622 C   0  0  0  0  0  0  0  0  0  0  0  0
   -8.6906   20.1020  -10.6127 C   0  0  0  0  0  0  0  0  0  0  0  0
   -7.4687   19.6858   -9.9996 O   0  0  0  0  0  0  0  0  0  0  0  0
   -6.8207   17.7961   -8.0704 N   0  0  0  0  0  0  0  0  0  0  0  0
   -4.5302   18.6666   -9.3862 H   0  0  0  0  0  0  0  0  0  0  0  0
   -8.1973   17.2778   -7.3097 S   0  0  0  0  0  0  0  0  0  0  0  0
   -9.1725   17.0935   -8.3266 O   0  0  0  0  0  0  0  0  0  0  0  0
   -7.7988   16.2451   -6.4187 O   0  0  0  0  0  0  0  0  0  0  0  0
   -8.7704   18.6075   -6.3056 C   0  0  0  0  0  0  0  0  0  0  0  0
   -8.8448   18.4545   -4.9340 C   0  0  0  0  0  0  0  0  0  0  0  0
   -9.2941   19.4964   -4.1441 C   0  0  0  0  0  0  0  0  0  0  0  0
   -9.6697   20.6940   -4.7265 C   0  0  0  0  0  0  0  0  0  0  0  0
  -10.1085   21.7127   -3.9553 F   0  0  0  0  0  0  0  0  0  0  0  0
   -9.5947   20.8477   -6.1028 C   0  0  0  0  0  0  0  0  0  0  0  0
   -9.9609   22.0161   -6.6738 F   0  0  0  0  0  0  0  0  0  0  0  0
   -9.1400   19.8047   -6.8901 C   0  0  0  0  0  0  0  0  0  0  0  0
 16 17  1  0  0  0
 17  1  1  0  0  0
  1  6  2  0  0  0
  1  2  1  0  0  0
  2  3  2  0  0  0
  3  4  1  0  0  0
  4  7  1  0  0  0
  4  5  2  0  0  0
  7  8  2  0  0  0
  7  9  2  0  0  0
  7 10  1  0  0  0
 10 15  1  0  0  0
 10 11  1  0  0  0
 11 12  1  0  0  0
 12 13  1  0  0  0
 13 14  1  0  0  0
 14 15  1  0  0  0
  5  6  1  0  0  0
  6 18  1  0  0  0
 18 20  1  0  0  0
 20 21  2  0  0  0
 20 22  2  0  0  0
 20 23  1  0  0  0
 23 30  1  0  0  0
 23 24  2  0  0  0
 24 25  1  0  0  0
 25 26  2  0  0  0
 26 27  1  0  0  0
 26 28  1  0  0  0
 28 29  1  0  0  0
 28 30  2  0  0  0
 18 19  1  0  0  0
M  END
> <minimizedAffinity>
-8.02937

$$$$
ZINC000329788064


 32 35  0  0  0  0  0  0  0  0999 V2000
   -8.4567   18.0541   -8.8301 N   0  0  0  0  0  0  0  0  0  0  0  0
   -8.3210   16.8085   -9.3046 C   0  0  0  0  0  0  0  0  0  0  0  0
   -8.6854   15.6991   -8.5703 C   0  0  0  0  0  0  0  0  0  0  0  0
   -9.2418   15.8893   -7.2206 C   0  0  0  0  0  0  0  0  0  0  0  0
   -9.5780   14.9405   -6.5330 O   0  0  0  0  0  0  0  0  0  0  0  0
   -9.3747   17.2731   -6.7357 C   0  0  0  0  0  0  0  0  0  0  0  0
   -9.8922   17.5461   -5.4672 C   0  0  0  0  0  0  0  0  0  0  0  0
  -10.0037   18.8400   -5.0434 C   0  0  0  0  0  0  0  0  0  0  0  0
  -10.5041   19.1050   -3.8167 F   0  0  0  0  0  0  0  0  0  0  0  0
   -9.6022   19.8907   -5.8723 C   0  0  0  0  0  0  0  0  0  0  0  0
   -9.0869   19.6352   -7.1330 C   0  0  0  0  0  0  0  0  0  0  0  0
   -8.9632   18.3239   -7.5761 C   0  0  0  0  0  0  0  0  0  0  0  0
   -9.7203   21.2053   -5.4277 N   0  0  0  0  0  0  0  0  0  0  0  0
  -11.1288   21.5618   -5.2061 C   0  0  0  0  0  0  0  0  0  0  0  0
  -11.2110   22.9900   -4.6630 C   0  0  0  0  0  0  0  0  0  0  0  0
  -10.5993   23.9160   -5.6252 N   0  0  0  0  0  0  0  0  0  0  0  0
   -9.1867   23.5624   -5.8174 C   0  0  0  0  0  0  0  0  0  0  0  0
   -9.0876   22.1389   -6.3702 C   0  0  0  0  0  0  0  0  0  0  0  0
   -5.7949   18.2820   -6.4298 H   0  0  0  0  0  0  0  0  0  0  0  0
   -5.7949   18.2820   -6.4298 H   0  0  0  0  0  0  0  0  0  0  0  0
   -7.5372   18.6436  -11.0184 C   0  0  0  0  0  0  0  0  0  0  0  0
   -8.0440   19.1764   -9.6766 C   0  0  0  0  0  0  0  0  0  0  0  0
   -8.5204   14.3484   -9.1265 C   0  0  0  0  0  0  0  0  0  0  0  0
   -9.3392   13.9099   -9.9115 O   0  0  0  0  0  0  0  0  0  0  0  0
   -7.4633   13.5971   -8.7669 O   0  0  0  0  0  0  0  0  0  0  0  0
   -6.6176   13.3888   -9.6185 N   0  0  0  0  0  0  0  0  0  0  0  0
   -5.5991   14.2268   -9.8483 C   0  0  0  0  0  0  0  0  0  0  0  0
   -5.3967   15.2655   -9.2560 O   0  0  0  0  0  0  0  0  0  0  0  0
   -4.7403   13.6722  -10.9638 C   0  0  0  0  0  0  0  0  0  0  0  0
   -5.4465   12.3545  -11.3428 C   0  0  0  0  0  0  0  0  0  0  0  0
   -6.6269   12.3003  -10.3977 C   0  0  0  0  0  0  0  0  0  0  0  0
   -7.4545   11.4147  -10.3575 O   0  0  0  0  0  0  0  0  0  0  0  0
 21 22  1  0  0  0
 22  1  1  0  0  0
  1 12  1  0  0  0
  1  2  1  0  0  0
  2  3  2  0  0  0
  3 23  1  0  0  0
  3  4  1  0  0  0
 23 24  2  0  0  0
 23 25  1  0  0  0
 25 26  1  0  0  0
 26 31  1  0  0  0
 26 27  1  0  0  0
 27 28  2  0  0  0
 27 29  1  0  0  0
 29 30  1  0  0  0
 30 31  1  0  0  0
 31 32  2  0  0  0
  4  5  2  0  0  0
  4  6  1  0  0  0
  6 12  2  0  0  0
  6  7  1  0  0  0
  7  8  2  0  0  0
  8  9  1  0  0  0
  8 10  1  0  0  0
 10 13  1  0  0  0
 10 11  2  0  0  0
 13 18  1  0  0  0
 13 14  1  0  0  0
 14 15  1  0  0  0
 15 16  1  0  0  0
 16 17  1  0  0  0
 17 18  1  0  0  0
 11 12  1  0  0  0
 16 19  1  0  0  0
 16 20  1  0  0  0
M  CHG 1  16   1
M  END
> <minimizedAffinity>
-8.65795

$$$$
ZINC000225245534


 24 25  0  0  0  0  0  0  0  0999 V2000
   -7.1319   12.8422   -9.3159 N   0  0  0  0  0  0  0  0  0  0  0  0
   -7.5777   14.0583   -9.4580 C   0  0  0  0  0  0  0  0  0  0  0  0
   -6.9302   12.4998   -8.4310 H   0  0  0  0  0  0  0  0  0  0  0  0
   -7.8428   14.8272   -8.3494 N   0  0  0  0  0  0  0  0  0  0  0  0
   -6.7497   15.3939   -7.5449 C   0  0  0  0  0  0  0  0  0  0  0  0
   -7.0039   16.8947   -7.3671 C   0  0  0  0  0  0  0  0  0  0  0  0
   -8.3505   17.0983   -6.8165 N   0  0  0  0  0  0  0  0  0  0  0  0
   -9.3835   16.6167   -7.7433 C   0  0  0  0  0  0  0  0  0  0  0  0
   -9.2270   15.1097   -7.9400 C   0  0  0  0  0  0  0  0  0  0  0  0
   -8.5699   18.5088   -6.4704 C   0  0  0  0  0  0  0  0  0  0  0  0
   -9.0742   19.2638   -7.7019 C   0  0  0  0  0  0  0  0  0  0  0  0
   -9.2597   20.6420   -7.3730 O   0  0  0  0  0  0  0  0  0  0  0  0
  -12.6455   17.2765   -2.4956 H   0  0  0  0  0  0  0  0  0  0  0  0
   -7.7835   14.5735  -10.7187 N   0  0  0  0  0  0  0  0  0  0  0  0
   -6.9878   13.6358   -9.8673 H   0  0  0  0  0  0  0  0  0  0  0  0
   -7.0410   15.6694  -11.1529 C   0  0  0  0  0  0  0  0  0  0  0  0
   -7.4722   16.8951  -10.9005 N   0  0  0  0  0  0  0  0  0  0  0  0
   -6.7993   17.9600  -11.2935 C   0  0  0  0  0  0  0  0  0  0  0  0
   -5.6131   17.8314  -11.9877 C   0  0  0  0  0  0  0  0  0  0  0  0
   -5.1262   16.5626  -12.2728 C   0  0  0  0  0  0  0  0  0  0  0  0
   -5.8508   15.4655  -11.8428 C   0  0  0  0  0  0  0  0  0  0  0  0
   -5.3718   14.0932  -12.1231 N   0  0  0  0  0  0  0  0  0  0  0  0
   -5.6109   13.5724  -13.1979 O   0  0  0  0  0  0  0  0  0  0  0  0
   -4.7385   13.4850  -11.2791 O   0  0  0  0  0  0  0  0  0  0  0  0
  1  2  2  0  0  0
  1  3  1  0  0  0
  2 14  1  0  0  0
  2  4  1  0  0  0
 14 16  1  0  0  0
 16 21  1  0  0  0
 16 17  2  0  0  0
 17 18  1  0  0  0
 18 19  2  0  0  0
 19 20  1  0  0  0
 20 21  2  0  0  0
 21 22  1  0  0  0
 22 23  1  0  0  0
 22 24  2  0  0  0
  4  9  1  0  0  0
  4  5  1  0  0  0
  5  6  1  0  0  0
  6  7  1  0  0  0
  7 10  1  0  0  0
  7  8  1  0  0  0
 10 11  1  0  0  0
 11 12  1  0  0  0
  8  9  1  0  0  0
 14 15  1  0  0  0
 12 13  1  0  0  0
M  CHG 1  22   1
M  CHG 1  23  -1
M  END
> <minimizedAffinity>
-6.68572

$$$$
ZINC000257294687


 28 30  0  0  0  0  0  0  0  0999 V2000
   -7.8007   15.1977   -6.8991 C   0  0  0  0  0  0  0  0  0  0  0  0
   -6.4332   14.7570   -6.3732 C   0  0  0  0  0  0  0  0  0  0  0  0
   -5.3309   15.4813   -7.1485 C   0  0  0  0  0  0  0  0  0  0  0  0
   -5.4413   15.1355   -8.6348 C   0  0  0  0  0  0  0  0  0  0  0  0
   -6.8088   15.5762   -9.1608 C   0  0  0  0  0  0  0  0  0  0  0  0
   -7.9111   14.8519   -8.3854 C   0  0  0  0  0  0  0  0  0  0  0  0
   -9.1883   15.2634   -8.8767 O   0  0  0  0  0  0  0  0  0  0  0  0
   -8.6371   16.7354   -4.7069 H   0  0  0  0  0  0  0  0  0  0  0  0
  -10.1271   16.4407   -6.3373 O   0  0  0  0  0  0  0  0  0  0  0  0
   -9.1589   17.1685   -6.4425 C   0  0  0  0  0  0  0  0  0  0  0  0
   -7.9490   16.6444   -6.7221 N   0  0  0  0  0  0  0  0  0  0  0  0
  -10.0340   16.7876   -6.3037 H   0  0  0  0  0  0  0  0  0  0  0  0
   -9.3093   18.6261   -6.2702 C   0  0  0  0  0  0  0  0  0  0  0  0
   -9.1579   19.4819   -7.3637 C   0  0  0  0  0  0  0  0  0  0  0  0
   -9.2995   20.8426   -7.1966 C   0  0  0  0  0  0  0  0  0  0  0  0
   -9.5911   21.3670   -5.9482 C   0  0  0  0  0  0  0  0  0  0  0  0
   -9.7430   20.5321   -4.8578 C   0  0  0  0  0  0  0  0  0  0  0  0
  -10.1404   21.2605   -3.1587 Br  0  0  0  0  0  0  0  0  0  0  0  0
   -9.6104   19.1593   -5.0096 C   0  0  0  0  0  0  0  0  0  0  0  0
   -9.7593   18.3379   -3.9401 O   0  0  0  0  0  0  0  0  0  0  0  0
   -9.2910   16.7776   -5.5707 H   0  0  0  0  0  0  0  0  0  0  0  0
   -6.9119   15.2531  -10.5490 O   0  0  0  0  0  0  0  0  0  0  0  0
   -6.7644   16.2750  -11.4329 C   0  0  0  0  0  0  0  0  0  0  0  0
   -7.1578   17.5648  -11.0921 C   0  0  0  0  0  0  0  0  0  0  0  0
   -6.9871   18.5740  -12.0265 C   0  0  0  0  0  0  0  0  0  0  0  0
   -6.4360   18.2685  -13.2566 C   0  0  0  0  0  0  0  0  0  0  0  0
   -6.0734   17.0346  -13.5482 N   0  0  0  0  0  0  0  0  0  0  0  0
   -6.2138   16.0474  -12.6860 C   0  0  0  0  0  0  0  0  0  0  0  0
  9 10  2  0  0  0
 10 11  1  0  0  0
 10 13  1  0  0  0
 11  1  1  0  0  0
  1  6  1  0  0  0
  1  2  1  0  0  0
  2  3  1  0  0  0
  3  4  1  0  0  0
  4  5  1  0  0  0
  5 22  1  0  0  0
  5  6  1  0  0  0
 22 23  1  0  0  0
 23 28  1  0  0  0
 23 24  2  0  0  0
 24 25  1  0  0  0
 25 26  2  0  0  0
 26 27  1  0  0  0
 27 28  2  0  0  0
  6  7  1  0  0  0
 13 19  1  0  0  0
 13 14  2  0  0  0
 14 15  1  0  0  0
 15 16  2  0  0  0
 16 17  1  0  0  0
 17 18  1  0  0  0
 17 19  2  0  0  0
 19 20  1  0  0  0
 11 12  1  0  0  0
  7  8  1  0  0  0
 20 21  1  0  0  0
M  END
> <minimizedAffinity>
-7.79759

$$$$
ZINC000097018797


 25 26  0  0  0  0  0  0  0  0999 V2000
   -7.1500   14.9426   -9.1872 C   0  0  0  0  0  0  0  0  0  0  0  0
   -6.4745   13.5965   -9.2422 C   0  0  0  0  0  0  0  0  0  0  0  0
   -7.1210   12.5816   -9.0461 O   0  0  0  0  0  0  0  0  0  0  0  0
   -5.2817   13.5224   -9.4829 O   0  0  0  0  0  0  0  0  0  0  0  0
   -7.2223   13.7520   -2.7445 H   0  0  0  0  0  0  0  0  0  0  0  0
   -7.9737   15.0477   -7.9022 C   0  0  0  0  0  0  0  0  0  0  0  0
   -9.1576   17.0059   -7.0651 C   0  0  0  0  0  0  0  0  0  0  0  0
  -10.1874   16.3596   -7.0949 O   0  0  0  0  0  0  0  0  0  0  0  0
   -7.9959   16.4406   -7.4490 N   0  0  0  0  0  0  0  0  0  0  0  0
   -8.5324   20.4872   -6.0473 H   0  0  0  0  0  0  0  0  0  0  0  0
   -9.2086   22.1071   -6.9966 C   0  0  0  0  0  0  0  0  0  0  0  0
   -9.2021   20.6534   -6.5988 C   0  0  0  0  0  0  0  0  0  0  0  0
   -9.1771   19.6147   -7.4479 C   0  0  0  0  0  0  0  0  0  0  0  0
   -9.1801   18.4072   -6.6092 C   0  0  0  0  0  0  0  0  0  0  0  0
   -9.2069   18.8550   -5.3209 C   0  0  0  0  0  0  0  0  0  0  0  0
   -9.2197   17.9898   -4.0870 C   0  0  0  0  0  0  0  0  0  0  0  0
   -9.2146   20.1913   -5.3388 O   0  0  0  0  0  0  0  0  0  0  0  0
   -6.0904   16.0461   -9.2055 C   0  0  0  0  0  0  0  0  0  0  0  0
   -6.2699   16.8946  -10.4379 C   0  0  0  0  0  0  0  0  0  0  0  0
   -7.1432   17.9657  -10.4183 C   0  0  0  0  0  0  0  0  0  0  0  0
   -7.3079   18.7441  -11.5490 C   0  0  0  0  0  0  0  0  0  0  0  0
   -8.2606   19.9117  -11.5277 C   0  0  0  0  0  0  0  0  0  0  0  0
   -6.5986   18.4518  -12.6986 C   0  0  0  0  0  0  0  0  0  0  0  0
   -5.7246   17.3806  -12.7181 C   0  0  0  0  0  0  0  0  0  0  0  0
   -5.5568   16.6050  -11.5864 C   0  0  0  0  0  0  0  0  0  0  0  0
 11 12  1  0  0  0
 12 17  1  0  0  0
 12 13  2  0  0  0
 13 14  1  0  0  0
 14  7  1  0  0  0
 14 15  2  0  0  0
  7  8  2  0  0  0
  7  9  1  0  0  0
  9  6  1  0  0  0
  6  1  1  0  0  0
  1 18  1  0  0  0
  1  2  1  0  0  0
 18 19  1  0  0  0
 19 25  1  0  0  0
 19 20  2  0  0  0
 20 21  1  0  0  0
 21 22  1  0  0  0
 21 23  2  0  0  0
 23 24  1  0  0  0
 24 25  2  0  0  0
  2  3  2  0  0  0
  2  4  1  0  0  0
 15 16  1  0  0  0
 15 17  1  0  0  0
  9 10  1  0  0  0
  4  5  1  0  0  0
M  END
> <minimizedAffinity>
-7.95124

$$$$
ZINC000257278815


 28 31  0  0  0  0  0  0  0  0999 V2000
   -7.6204   13.8693  -10.3758 C   0  0  0  0  0  0  0  0  0  0  0  0
   -7.2631   12.3709  -10.4691 C   0  0  0  0  0  0  0  0  0  0  0  0
   -6.8868   12.1937  -11.9637 C   0  0  0  0  0  0  0  0  0  0  0  0
   -6.1921   13.5431  -12.2736 C   0  0  0  0  0  0  0  0  0  0  0  0
   -6.9610   14.5502  -11.5051 N   0  0  0  0  0  0  0  0  0  0  0  0
   -7.3485   15.8982   -7.3196 C   0  0  0  0  0  0  0  0  0  0  0  0
   -6.1728   15.4000   -6.7551 C   0  0  0  0  0  0  0  0  0  0  0  0
   -5.5079   14.4369   -7.3651 N   0  0  0  0  0  0  0  0  0  0  0  0
   -5.9537   13.9443   -8.5083 C   0  0  0  0  0  0  0  0  0  0  0  0
   -7.1192   14.4357   -9.0723 C   0  0  0  0  0  0  0  0  0  0  0  0
   -7.7951   15.3945   -8.4679 N   0  0  0  0  0  0  0  0  0  0  0  0
   -9.2836   15.5571   -4.9198 C   0  0  0  0  0  0  0  0  0  0  0  0
   -8.9496   16.8179   -5.5869 N   0  0  0  0  0  0  0  0  0  0  0  0
   -9.4274   18.0581   -5.2674 C   0  0  0  0  0  0  0  0  0  0  0  0
   -8.8660   18.9322   -6.1293 C   0  0  0  0  0  0  0  0  0  0  0  0
   -8.0653   18.2531   -6.9565 N   0  0  0  0  0  0  0  0  0  0  0  0
   -8.0982   16.9774   -6.6412 C   0  0  0  0  0  0  0  0  0  0  0  0
   -6.0861   15.6305  -11.0302 C   0  0  0  0  0  0  0  0  0  0  0  0
   -6.5243   16.9368  -11.6405 C   0  0  0  0  0  0  0  0  0  0  0  0
   -6.1685   17.2444  -12.9417 C   0  0  0  0  0  0  0  0  0  0  0  0
   -6.5665   18.4418  -13.5103 C   0  0  0  0  0  0  0  0  0  0  0  0
   -7.3215   19.3374  -12.7827 C   0  0  0  0  0  0  0  0  0  0  0  0
   -7.6851   19.0332  -11.4682 C   0  0  0  0  0  0  0  0  0  0  0  0
   -7.2842   17.8204  -10.9024 C   0  0  0  0  0  0  0  0  0  0  0  0
   -8.4927   19.9862  -10.6831 C   0  0  0  0  0  0  0  0  0  0  0  0
   -9.3600   19.5740   -9.9258 O   0  0  0  0  0  0  0  0  0  0  0  0
   -8.2948   21.1884  -10.7896 O   0  0  0  0  0  0  0  0  0  0  0  0
   -0.6332   21.8757  -18.4763 H   0  0  0  0  0  0  0  0  0  0  0  0
 12 13  1  0  0  0
 13 17  1  0  0  0
 13 14  1  0  0  0
 14 15  2  0  0  0
 15 16  1  0  0  0
 16 17  2  0  0  0
 17  6  1  0  0  0
  6 11  1  0  0  0
  6  7  2  0  0  0
  7  8  1  0  0  0
  8  9  2  0  0  0
  9 10  1  0  0  0
 10  1  1  0  0  0
 10 11  2  0  0  0
  1  5  1  0  0  0
  1  2  1  0  0  0
  2  3  1  0  0  0
  3  4  1  0  0  0
  4  5  1  0  0  0
  5 18  1  0  0  0
 18 19  1  0  0  0
 19 24  1  0  0  0
 19 20  2  0  0  0
 20 21  1  0  0  0
 21 22  2  0  0  0
 22 23  1  0  0  0
 23 25  1  0  0  0
 23 24  2  0  0  0
 25 26  2  0  0  0
 25 27  1  0  0  0
 27 28  1  0  0  0
M  END
> <minimizedAffinity>
-8.06363

$$$$
ZINC000036700030


 32 35  0  0  0  0  0  0  0  0999 V2000
   -7.7949   14.8908   -5.1870 O   0  0  0  0  0  0  0  0  0  0  0  0
   -8.0209   15.3987   -6.2650 C   0  0  0  0  0  0  0  0  0  0  0  0
   -7.0448   15.4768   -7.1911 N   0  0  0  0  0  0  0  0  0  0  0  0
   -7.7932   14.8940   -5.1905 H   0  0  0  0  0  0  0  0  0  0  0  0
   -9.3914   15.9482   -6.5665 C   0  0  0  0  0  0  0  0  0  0  0  0
   -9.4231   17.3794   -6.2552 N   0  0  0  0  0  0  0  0  0  0  0  0
   -9.3497   18.3598   -7.1734 C   0  0  0  0  0  0  0  0  0  0  0  0
   -9.2482   18.2012   -8.3732 O   0  0  0  0  0  0  0  0  0  0  0  0
   -9.4142   19.6624   -6.4778 C   0  0  0  0  0  0  0  0  0  0  0  0
   -9.3844   20.9835   -6.8933 C   0  0  0  0  0  0  0  0  0  0  0  0
   -9.4677   22.0011   -5.9551 C   0  0  0  0  0  0  0  0  0  0  0  0
   -9.5801   21.7061   -4.6097 C   0  0  0  0  0  0  0  0  0  0  0  0
   -9.6112   20.3884   -4.1793 C   0  0  0  0  0  0  0  0  0  0  0  0
   -9.5289   19.3614   -5.1053 C   0  0  0  0  0  0  0  0  0  0  0  0
   -9.5352   17.8860   -5.0141 C   0  0  0  0  0  0  0  0  0  0  0  0
   -9.6249   17.2396   -3.9899 O   0  0  0  0  0  0  0  0  0  0  0  0
   -5.7109   14.9481   -6.8957 C   0  0  0  0  0  0  0  0  0  0  0  0
   -5.0305   14.5238   -8.1988 C   0  0  0  0  0  0  0  0  0  0  0  0
   -5.9001   13.4882   -8.9145 C   0  0  0  0  0  0  0  0  0  0  0  0
   -5.4437   13.3411  -10.3030 N   0  0  0  0  0  0  0  0  0  0  0  0
   -6.3474   12.4326  -11.0222 C   0  0  0  0  0  0  0  0  0  0  0  0
   -7.7651   13.0098  -11.0075 C   0  0  0  0  0  0  0  0  0  0  0  0
   -7.7500   14.3123  -11.5983 O   0  0  0  0  0  0  0  0  0  0  0  0
   -6.8652   15.2278  -10.9467 C   0  0  0  0  0  0  0  0  0  0  0  0
   -5.4456   14.6548  -10.9612 C   0  0  0  0  0  0  0  0  0  0  0  0
   -6.9281   11.8730   -4.1751 H   0  0  0  0  0  0  0  0  0  0  0  0
   -6.8832   16.5483  -11.6728 C   0  0  0  0  0  0  0  0  0  0  0  0
   -6.5036   16.6122  -13.0005 C   0  0  0  0  0  0  0  0  0  0  0  0
   -6.5202   17.8234  -13.6665 C   0  0  0  0  0  0  0  0  0  0  0  0
   -6.9167   18.9706  -13.0050 C   0  0  0  0  0  0  0  0  0  0  0  0
   -7.2971   18.9065  -11.6775 C   0  0  0  0  0  0  0  0  0  0  0  0
   -7.2846   17.6946  -11.0128 C   0  0  0  0  0  0  0  0  0  0  0  0
  1  2  2  0  0  0
  2  5  1  0  0  0
  2  3  1  0  0  0
  5  6  1  0  0  0
  6 15  1  0  0  0
  6  7  1  0  0  0
  7  8  2  0  0  0
  7  9  1  0  0  0
  9 14  2  0  0  0
  9 10  1  0  0  0
 10 11  2  0  0  0
 11 12  1  0  0  0
 12 13  2  0  0  0
 13 14  1  0  0  0
 14 15  1  0  0  0
 15 16  2  0  0  0
  3 17  1  0  0  0
 17 18  1  0  0  0
 18 19  1  0  0  0
 19 20  1  0  0  0
 20 25  1  0  0  0
 20 21  1  0  0  0
 21 22  1  0  0  0
 22 23  1  0  0  0
 23 24  1  0  0  0
 24 27  1  0  0  0
 24 25  1  0  0  0
 27 32  1  0  0  0
 27 28  2  0  0  0
 28 29  1  0  0  0
 29 30  2  0  0  0
 30 31  1  0  0  0
 31 32  2  0  0  0
  3  4  1  0  0  0
 20 26  1  0  0  0
M  CHG 1  20   1
M  END
> <minimizedAffinity>
-8.20023

$$$$
ZINC000069366858


 21 22  0  0  0  0  0  0  0  0999 V2000
   -5.5921   15.4706  -10.2914 C   0  0  0  0  0  0  0  0  0  0  0  0
   -5.2928   15.5717  -11.7888 C   0  0  0  0  0  0  0  0  0  0  0  0
   -5.2868   17.0454  -12.2047 C   0  0  0  0  0  0  0  0  0  0  0  0
   -6.6400   17.6714  -11.8560 C   0  0  0  0  0  0  0  0  0  0  0  0
   -6.9003   17.5094  -10.3566 C   0  0  0  0  0  0  0  0  0  0  0  0
   -6.8969   16.0826  -10.0095 N   0  0  0  0  0  0  0  0  0  0  0  0
   -6.2812   13.1198  -10.6334 N   0  0  0  0  0  0  0  0  0  0  0  0
   -5.6185   14.0207   -9.8814 C   0  0  0  0  0  0  0  0  0  0  0  0
   -5.0435   13.6646   -8.8747 O   0  0  0  0  0  0  0  0  0  0  0  0
   -5.4287   13.9733   -9.2968 H   0  0  0  0  0  0  0  0  0  0  0  0
   -5.4287   13.9733   -9.2968 H   0  0  0  0  0  0  0  0  0  0  0  0
   -7.2802   15.8814   -8.6058 C   0  0  0  0  0  0  0  0  0  0  0  0
   -8.7641   15.5164   -8.5297 C   0  0  0  0  0  0  0  0  0  0  0  0
   -8.9086   14.0958   -8.5852 O   0  0  0  0  0  0  0  0  0  0  0  0
   -7.2981   17.7100  -10.7346 H   0  0  0  0  0  0  0  0  0  0  0  0
   -9.3508   16.0378   -7.2164 C   0  0  0  0  0  0  0  0  0  0  0  0
   -9.2355   17.4977   -7.1757 N   0  0  0  0  0  0  0  0  0  0  0  0
   -8.8239   18.2325   -6.1212 C   0  0  0  0  0  0  0  0  0  0  0  0
   -8.8586   19.5347   -6.4872 C   0  0  0  0  0  0  0  0  0  0  0  0
   -9.3068   19.5980   -7.8106 C   0  0  0  0  0  0  0  0  0  0  0  0
   -9.5272   18.3771   -8.2263 N   0  0  0  0  0  0  0  0  0  0  0  0
  7  8  1  0  0  0
  8  9  2  0  0  0
  8  1  1  0  0  0
  1  6  1  0  0  0
  1  2  1  0  0  0
  2  3  1  0  0  0
  3  4  1  0  0  0
  4  5  1  0  0  0
  5  6  1  0  0  0
  6 12  1  0  0  0
 12 13  1  0  0  0
 13 14  1  0  0  0
 13 16  1  0  0  0
 16 17  1  0  0  0
 17 21  1  0  0  0
 17 18  1  0  0  0
 18 19  2  0  0  0
 19 20  1  0  0  0
 20 21  2  0  0  0
  7 10  1  0  0  0
  7 11  1  0  0  0
 14 15  1  0  0  0
M  END
> <minimizedAffinity>
-5.93987

$$$$
ZINC000225239292


 28 30  0  0  0  0  0  0  0  0999 V2000
   -6.9649   18.0241  -12.5423 N   0  0  0  0  0  0  0  0  0  0  0  0
   -6.4002   17.7170  -11.4089 C   0  0  0  0  0  0  0  0  0  0  0  0
   -7.6751   17.5810  -13.3426 H   0  0  0  0  0  0  0  0  0  0  0  0
   -7.6751   17.5810  -13.3426 H   0  0  0  0  0  0  0  0  0  0  0  0
   -6.7978   18.3425  -10.2508 N   0  0  0  0  0  0  0  0  0  0  0  0
   -7.6558   19.5346  -10.3013 C   0  0  0  0  0  0  0  0  0  0  0  0
   -8.9037   19.2768   -9.4479 C   0  0  0  0  0  0  0  0  0  0  0  0
   -8.4789   18.7648   -8.1374 N   0  0  0  0  0  0  0  0  0  0  0  0
   -7.6209   17.5727   -8.0870 C   0  0  0  0  0  0  0  0  0  0  0  0
   -6.3776   17.8273   -8.9402 C   0  0  0  0  0  0  0  0  0  0  0  0
   -8.8839   19.4000   -6.9604 C   0  0  0  0  0  0  0  0  0  0  0  0
   -9.4298   20.6762   -7.0109 C   0  0  0  0  0  0  0  0  0  0  0  0
   -9.8291   21.3016   -5.8460 C   0  0  0  0  0  0  0  0  0  0  0  0
   -9.6858   20.6579   -4.6294 C   0  0  0  0  0  0  0  0  0  0  0  0
  -10.1893   21.4468   -3.1673 Cl  0  0  0  0  0  0  0  0  0  0  0  0
   -9.1423   19.3864   -4.5762 C   0  0  0  0  0  0  0  0  0  0  0  0
   -8.7464   18.7540   -5.7384 C   0  0  0  0  0  0  0  0  0  0  0  0
   -5.4049   16.7655  -11.3709 N   0  0  0  0  0  0  0  0  0  0  0  0
   -5.8988   19.4586  -12.8575 H   0  0  0  0  0  0  0  0  0  0  0  0
   -5.7333   15.4122  -11.4051 C   0  0  0  0  0  0  0  0  0  0  0  0
   -5.5116   14.6210  -10.2836 C   0  0  0  0  0  0  0  0  0  0  0  0
   -5.8429   13.2783  -10.3310 C   0  0  0  0  0  0  0  0  0  0  0  0
   -6.3863   12.7712  -11.5033 C   0  0  0  0  0  0  0  0  0  0  0  0
   -6.5793   13.6148  -12.5795 C   0  0  0  0  0  0  0  0  0  0  0  0
   -6.2586   14.8923  -12.5036 N   0  0  0  0  0  0  0  0  0  0  0  0
   -6.7559   11.3411  -11.5988 N   0  0  0  0  0  0  0  0  0  0  0  0
   -7.9201   11.0036  -11.4786 O   0  0  0  0  0  0  0  0  0  0  0  0
   -5.8960   10.5017  -11.7974 O   0  0  0  0  0  0  0  0  0  0  0  0
  1  2  2  0  0  0
  2 18  1  0  0  0
  2  5  1  0  0  0
 18 20  1  0  0  0
 20 25  1  0  0  0
 20 21  2  0  0  0
 21 22  1  0  0  0
 22 23  2  0  0  0
 23 26  1  0  0  0
 23 24  1  0  0  0
 26 27  1  0  0  0
 26 28  2  0  0  0
 24 25  2  0  0  0
  5 10  1  0  0  0
  5  6  1  0  0  0
  6  7  1  0  0  0
  7  8  1  0  0  0
  8 11  1  0  0  0
  8  9  1  0  0  0
 11 17  1  0  0  0
 11 12  2  0  0  0
 12 13  1  0  0  0
 13 14  2  0  0  0
 14 15  1  0  0  0
 14 16  1  0  0  0
 16 17  2  0  0  0
  9 10  1  0  0  0
  1  3  1  0  0  0
  1  4  1  0  0  0
 18 19  1  0  0  0
M  CHG 1   1   1
M  CHG 1  26   1
M  CHG 1  27  -1
M  END
> <minimizedAffinity>
-8.05793

$$$$
ZINC000072144136


 28 30  0  0  0  0  0  0  0  0999 V2000
   -6.9037   15.7764  -11.6032 N   0  0  0  0  0  0  0  0  0  0  0  0
   -6.9189   16.3429  -12.9612 C   0  0  0  0  0  0  0  0  0  0  0  0
   -6.1614   17.6755  -12.9376 C   0  0  0  0  0  0  0  0  0  0  0  0
   -6.6939   18.5013  -11.8992 O   0  0  0  0  0  0  0  0  0  0  0  0
   -6.5409   17.9603  -10.5848 C   0  0  0  0  0  0  0  0  0  0  0  0
   -7.3231   16.6406  -10.4885 C   0  0  0  0  0  0  0  0  0  0  0  0
   -5.2883   10.4956  -10.7566 C   0  0  0  0  0  0  0  0  0  0  0  0
   -5.7237   11.8793  -10.9624 N   0  0  0  0  0  0  0  0  0  0  0  0
   -5.2274   12.6081  -12.0482 N   0  0  0  0  0  0  0  0  0  0  0  0
   -5.5975   13.8406  -12.2552 C   0  0  0  0  0  0  0  0  0  0  0  0
   -6.5120   14.4680  -11.3816 C   0  0  0  0  0  0  0  0  0  0  0  0
   -7.0131   13.7630  -10.3030 C   0  0  0  0  0  0  0  0  0  0  0  0
   -6.6029   12.4372  -10.1071 C   0  0  0  0  0  0  0  0  0  0  0  0
   -7.0321   11.7946   -9.1611 O   0  0  0  0  0  0  0  0  0  0  0  0
   -7.0867   18.9533   -9.5567 C   0  0  0  0  0  0  0  0  0  0  0  0
   -8.4466   18.4679   -9.0508 C   0  0  0  0  0  0  0  0  0  0  0  0
   -9.1290   19.5632   -8.3574 N   0  0  0  0  0  0  0  0  0  0  0  0
   -9.0895   19.6377   -7.0124 C   0  0  0  0  0  0  0  0  0  0  0  0
   -8.4890   18.7979   -6.3759 O   0  0  0  0  0  0  0  0  0  0  0  0
   -9.0511   13.8983  -16.1545 H   0  0  0  0  0  0  0  0  0  0  0  0
   -9.7915   20.7644   -6.2991 C   0  0  0  0  0  0  0  0  0  0  0  0
   -9.5836   20.6226   -4.7885 C   0  0  0  0  0  0  0  0  0  0  0  0
  -10.2309   21.8121   -4.0761 C   0  0  0  0  0  0  0  0  0  0  0  0
   -9.6144   23.0603   -4.5413 N   0  0  0  0  0  0  0  0  0  0  0  0
  -10.1855   24.1928   -3.8001 C   0  0  0  0  0  0  0  0  0  0  0  0
   -9.8715   23.2385   -5.9755 C   0  0  0  0  0  0  0  0  0  0  0  0
   -9.2103   22.1038   -6.7609 C   0  0  0  0  0  0  0  0  0  0  0  0
   -6.6358    9.1514   -6.2790 H   0  0  0  0  0  0  0  0  0  0  0  0
  7  8  1  0  0  0
  8 13  1  0  0  0
  8  9  1  0  0  0
  9 10  2  0  0  0
 10 11  1  0  0  0
 11  1  1  0  0  0
 11 12  2  0  0  0
  1  6  1  0  0  0
  1  2  1  0  0  0
  2  3  1  0  0  0
  3  4  1  0  0  0
  4  5  1  0  0  0
  5 15  1  0  0  0
  5  6  1  0  0  0
 15 16  1  0  0  0
 16 17  1  0  0  0
 17 18  1  0  0  0
 18 19  2  0  0  0
 18 21  1  0  0  0
 21 27  1  0  0  0
 21 22  1  0  0  0
 22 23  1  0  0  0
 23 24  1  0  0  0
 24 25  1  0  0  0
 24 26  1  0  0  0
 26 27  1  0  0  0
 12 13  1  0  0  0
 13 14  2  0  0  0
 17 20  1  0  0  0
 24 28  1  0  0  0
M  CHG 1  24   1
M  END
> <minimizedAffinity>
-7.77116

$$$$
ZINC000032739589


 26 27  0  0  0  0  0  0  0  0999 V2000
   -8.0395   18.7230   -9.6916 C   0  0  0  0  0  0  0  0  0  0  0  0
   -8.6300   19.8248  -10.2860 C   0  0  0  0  0  0  0  0  0  0  0  0
   -8.3502   20.1423  -11.6022 C   0  0  0  0  0  0  0  0  0  0  0  0
   -7.4770   19.3593  -12.3344 C   0  0  0  0  0  0  0  0  0  0  0  0
   -7.2038   19.6696  -13.6206 F   0  0  0  0  0  0  0  0  0  0  0  0
   -6.8769   18.2445  -11.7386 C   0  0  0  0  0  0  0  0  0  0  0  0
   -7.1622   17.9354  -10.4066 C   0  0  0  0  0  0  0  0  0  0  0  0
   -8.4048   18.3296   -8.0133 S   0  0  0  0  0  0  0  0  0  0  0  0
   -8.9604   19.5039   -7.4377 O   0  0  0  0  0  0  0  0  0  0  0  0
   -7.2531   17.6794   -7.4938 O   0  0  0  0  0  0  0  0  0  0  0  0
   -9.2916   15.7792   -7.8586 C   0  0  0  0  0  0  0  0  0  0  0  0
   -9.6141   17.1984   -8.0271 N   0  0  0  0  0  0  0  0  0  0  0  0
   -9.6111   17.1947   -8.0285 H   0  0  0  0  0  0  0  0  0  0  0  0
   -5.9434   17.4030  -12.5117 C   0  0  0  0  0  0  0  0  0  0  0  0
   -4.7450   17.5160  -12.3472 O   0  0  0  0  0  0  0  0  0  0  0  0
   -6.4200   16.5092  -13.4001 O   0  0  0  0  0  0  0  0  0  0  0  0
   -7.1528   15.3753  -12.8659 C   0  0  0  0  0  0  0  0  0  0  0  0
   -6.1808   14.3105  -12.4270 C   0  0  0  0  0  0  0  0  0  0  0  0
   -5.4491   13.7847  -13.2399 O   0  0  0  0  0  0  0  0  0  0  0  0
   -6.1193   13.9107  -11.0204 C   0  0  0  0  0  0  0  0  0  0  0  0
   -6.5975   12.7208  -10.5533 C   0  0  0  0  0  0  0  0  0  0  0  0
   -7.2470   11.6639  -11.4091 C   0  0  0  0  0  0  0  0  0  0  0  0
   -6.3589   12.5923   -8.8706 S   0  0  0  0  0  0  0  0  0  0  0  0
   -5.5984   14.1712   -8.7805 C   0  0  0  0  0  0  0  0  0  0  0  0
   -5.0760   14.7997   -7.5144 C   0  0  0  0  0  0  0  0  0  0  0  0
   -5.5401   14.7325   -9.9808 C   0  0  0  0  0  0  0  0  0  0  0  0
 11 12  1  0  0  0
 12  8  1  0  0  0
  8  9  2  0  0  0
  8 10  2  0  0  0
  8  1  1  0  0  0
  1  7  2  0  0  0
  1  2  1  0  0  0
  2  3  2  0  0  0
  3  4  1  0  0  0
  4  5  1  0  0  0
  4  6  2  0  0  0
  6 14  1  0  0  0
  6  7  1  0  0  0
 14 15  2  0  0  0
 14 16  1  0  0  0
 16 17  1  0  0  0
 17 18  1  0  0  0
 18 19  2  0  0  0
 18 20  1  0  0  0
 20 26  1  0  0  0
 20 21  2  0  0  0
 21 22  1  0  0  0
 21 23  1  0  0  0
 23 24  1  0  0  0
 24 25  1  0  0  0
 24 26  2  0  0  0
 12 13  1  0  0  0
M  END
> <minimizedAffinity>
-8.29170

$$$$
ZINC000030840510


 31 33  0  0  0  0  0  0  0  0999 V2000
   -7.1791   17.7265  -11.0815 C   0  0  0  0  0  0  0  0  0  0  0  0
   -7.3679   17.3205   -9.7656 C   0  0  0  0  0  0  0  0  0  0  0  0
   -7.9652   18.1683   -8.8600 C   0  0  0  0  0  0  0  0  0  0  0  0
   -8.3820   19.4412   -9.2663 C   0  0  0  0  0  0  0  0  0  0  0  0
   -8.1891   19.8452  -10.5923 C   0  0  0  0  0  0  0  0  0  0  0  0
   -7.5865   18.9914  -11.4888 C   0  0  0  0  0  0  0  0  0  0  0  0
   -9.0199   20.3507   -8.3034 C   0  0  0  0  0  0  0  0  0  0  0  0
   -9.0336   20.0411   -6.9894 C   0  0  0  0  0  0  0  0  0  0  0  0
   -9.6680   20.9455   -6.0318 C   0  0  0  0  0  0  0  0  0  0  0  0
  -10.0007   20.5031   -4.7647 C   0  0  0  0  0  0  0  0  0  0  0  0
  -10.6094   21.4021   -3.8704 C   0  0  0  0  0  0  0  0  0  0  0  0
  -10.9126   21.0381   -2.7474 O   0  0  0  0  0  0  0  0  0  0  0  0
  -10.8550   22.6675   -4.2615 N   0  0  0  0  0  0  0  0  0  0  0  0
  -10.5260   23.0841   -5.4969 C   0  0  0  0  0  0  0  0  0  0  0  0
  -10.7597   24.2325   -5.8211 O   0  0  0  0  0  0  0  0  0  0  0  0
   -9.9378   22.2557   -6.3789 N   0  0  0  0  0  0  0  0  0  0  0  0
   -5.0852   15.3943  -13.5442 H   0  0  0  0  0  0  0  0  0  0  0  0
   -5.0852   15.3943  -13.5442 H   0  0  0  0  0  0  0  0  0  0  0  0
   -9.7209   19.1078   -4.3565 N   0  0  0  0  0  0  0  0  0  0  0  0
   -8.6585   18.8285   -3.8305 O   0  0  0  0  0  0  0  0  0  0  0  0
  -10.5532   18.2391   -4.5468 O   0  0  0  0  0  0  0  0  0  0  0  0
   -6.5896   16.8866  -11.9706 O   0  0  0  0  0  0  0  0  0  0  0  0
   -5.4113   16.2050  -11.5361 C   0  0  0  0  0  0  0  0  0  0  0  0
   -5.4403   14.4287  -13.0897 O   0  0  0  0  0  0  0  0  0  0  0  0
   -5.5010   14.7510  -11.9220 C   0  0  0  0  0  0  0  0  0  0  0  0
   -5.6542   13.8093  -10.9701 N   0  0  0  0  0  0  0  0  0  0  0  0
   -5.7366   14.1767   -9.5475 C   0  0  0  0  0  0  0  0  0  0  0  0
   -6.9713   13.4979   -8.9437 C   0  0  0  0  0  0  0  0  0  0  0  0
   -6.9302   12.0991   -9.2369 O   0  0  0  0  0  0  0  0  0  0  0  0
   -6.9789   11.7921  -10.6322 C   0  0  0  0  0  0  0  0  0  0  0  0
   -5.7502   12.3839  -11.3230 C   0  0  0  0  0  0  0  0  0  0  0  0
 24 25  2  0  0  0
 25 23  1  0  0  0
 25 26  1  0  0  0
 23 22  1  0  0  0
 22  1  1  0  0  0
  1  6  1  0  0  0
  1  2  2  0  0  0
  2  3  1  0  0  0
  3  4  2  0  0  0
  4  7  1  0  0  0
  4  5  1  0  0  0
  7  8  2  0  0  0
  8  9  1  0  0  0
  9 16  1  0  0  0
  9 10  2  0  0  0
 10 19  1  0  0  0
 10 11  1  0  0  0
 19 20  1  0  0  0
 19 21  2  0  0  0
 11 12  2  0  0  0
 11 13  1  0  0  0
 13 14  1  0  0  0
 14 15  2  0  0  0
 14 16  1  0  0  0
  5  6  2  0  0  0
 26 31  1  0  0  0
 26 27  1  0  0  0
 27 28  1  0  0  0
 28 29  1  0  0  0
 29 30  1  0  0  0
 30 31  1  0  0  0
 13 17  1  0  0  0
 16 18  1  0  0  0
M  CHG 1  19   1
M  CHG 1  20  -1
M  END
> <minimizedAffinity>
-8.57012

$$$$
ZINC000071979252


 24 25  0  0  0  0  0  0  0  0999 V2000
   -6.4653   12.7324  -10.5740 C   0  0  0  0  0  0  0  0  0  0  0  0
   -7.0479   13.8718  -10.7747 N   0  0  0  0  0  0  0  0  0  0  0  0
   -6.4828   14.9294  -10.0652 N   0  0  0  0  0  0  0  0  0  0  0  0
   -5.3531   14.4219   -9.2711 C   0  0  0  0  0  0  0  0  0  0  0  0
   -5.3250   12.9158   -9.5982 C   0  0  0  0  0  0  0  0  0  0  0  0
   -6.9182   16.2557  -10.1017 C   0  0  0  0  0  0  0  0  0  0  0  0
   -7.8410   16.7115   -9.1687 C   0  0  0  0  0  0  0  0  0  0  0  0
   -8.2695   18.0240   -9.2076 C   0  0  0  0  0  0  0  0  0  0  0  0
   -7.7819   18.8844  -10.1740 C   0  0  0  0  0  0  0  0  0  0  0  0
   -6.8630   18.4351  -11.1050 C   0  0  0  0  0  0  0  0  0  0  0  0
   -6.4247   17.1252  -11.0687 C   0  0  0  0  0  0  0  0  0  0  0  0
   -5.2714   16.5617  -12.2374 Cl  0  0  0  0  0  0  0  0  0  0  0  0
   -8.2440   20.2901  -10.2118 N   0  0  0  0  0  0  0  0  0  0  0  0
   -8.2977   20.8853  -11.2732 O   0  0  0  0  0  0  0  0  0  0  0  0
   -8.5705   20.8519   -9.1815 O   0  0  0  0  0  0  0  0  0  0  0  0
   -5.6000   14.6379   -7.8002 C   0  0  0  0  0  0  0  0  0  0  0  0
   -4.9728   15.4909   -7.1957 O   0  0  0  0  0  0  0  0  0  0  0  0
   -6.4269   13.9596   -7.2148 O   0  0  0  0  0  0  0  0  0  0  0  0
   -6.2185   18.9837  -13.2099 H   0  0  0  0  0  0  0  0  0  0  0  0
   -6.8421   11.5030  -11.1718 C   0  0  0  0  0  0  0  0  0  0  0  0
   -7.9801   11.0908  -11.0495 O   0  0  0  0  0  0  0  0  0  0  0  0
   -5.9384   10.7905  -11.8763 O   0  0  0  0  0  0  0  0  0  0  0  0
   -4.3892    8.9427  -12.0374 C   0  0  0  0  0  0  0  0  0  0  0  0
   -5.0026   10.0104  -11.1294 C   0  0  0  0  0  0  0  0  0  0  0  0
 23 24  1  0  0  0
 24 22  1  0  0  0
 22 20  1  0  0  0
 20 21  2  0  0  0
 20  1  1  0  0  0
  1  5  1  0  0  0
  1  2  2  0  0  0
  2  3  1  0  0  0
  3  6  1  0  0  0
  3  4  1  0  0  0
  6 11  1  0  0  0
  6  7  2  0  0  0
  7  8  1  0  0  0
  8  9  2  0  0  0
  9 13  1  0  0  0
  9 10  1  0  0  0
 13 14  1  0  0  0
 13 15  2  0  0  0
 10 11  2  0  0  0
 11 12  1  0  0  0
  4 16  1  0  0  0
  4  5  1  0  0  0
 16 17  2  0  0  0
 16 18  1  0  0  0
 18 19  1  0  0  0
M  CHG 1  13   1
M  CHG 1  14  -1
M  END
> <minimizedAffinity>
-7.65805

$$$$
ZINC000016137483


 25 26  0  0  0  0  0  0  0  0999 V2000
   -7.1789   15.5457   -8.5956 C   0  0  0  0  0  0  0  0  0  0  0  0
   -7.5742   14.1568   -9.1009 C   0  0  0  0  0  0  0  0  0  0  0  0
   -8.5908   14.2945  -10.1895 C   0  0  0  0  0  0  0  0  0  0  0  0
   -8.5016   13.5308  -11.2418 C   0  0  0  0  0  0  0  0  0  0  0  0
   -7.0755   12.4902  -11.0303 S   0  0  0  0  0  0  0  0  0  0  0  0
   -7.5803   11.2346  -10.5972 O   0  0  0  0  0  0  0  0  0  0  0  0
   -6.3229   12.6265  -12.2280 O   0  0  0  0  0  0  0  0  0  0  0  0
   -6.3188   13.4302   -9.6454 C   0  0  0  0  0  0  0  0  0  0  0  0
   -8.3875   16.2108   -7.9340 C   0  0  0  0  0  0  0  0  0  0  0  0
   -7.9425   17.4395   -7.2063 C   0  0  0  0  0  0  0  0  0  0  0  0
   -8.4453   17.6993   -6.0324 C   0  0  0  0  0  0  0  0  0  0  0  0
   -9.5875   16.3954   -5.6372 S   0  0  0  0  0  0  0  0  0  0  0  0
   -9.2209   15.9472   -4.3396 O   0  0  0  0  0  0  0  0  0  0  0  0
  -10.8779   16.9213   -5.9154 O   0  0  0  0  0  0  0  0  0  0  0  0
   -9.0397   15.2194   -6.9379 C   0  0  0  0  0  0  0  0  0  0  0  0
   -6.0495   14.3781   -6.7301 N   0  0  0  0  0  0  0  0  0  0  0  0
   -6.0640   15.4159   -7.5899 C   0  0  0  0  0  0  0  0  0  0  0  0
   -5.1799   16.2453   -7.5543 O   0  0  0  0  0  0  0  0  0  0  0  0
   -6.1031   15.6404   -7.5438 H   0  0  0  0  0  0  0  0  0  0  0  0
   -6.1031   15.6404   -7.5438 H   0  0  0  0  0  0  0  0  0  0  0  0
   -6.7138   16.3886   -9.7551 C   0  0  0  0  0  0  0  0  0  0  0  0
   -7.5229   17.3381  -10.2651 N   0  0  0  0  0  0  0  0  0  0  0  0
   -5.6115   16.2124  -10.2292 O   0  0  0  0  0  0  0  0  0  0  0  0
   -5.9476   14.7285   -8.2980 H   0  0  0  0  0  0  0  0  0  0  0  0
   -5.9476   14.7285   -8.2980 H   0  0  0  0  0  0  0  0  0  0  0  0
 16 17  1  0  0  0
 17 18  2  0  0  0
 17  1  1  0  0  0
  1 21  1  0  0  0
  1  2  1  0  0  0
  1  9  1  0  0  0
 21 22  1  0  0  0
 21 23  2  0  0  0
  2  8  1  0  0  0
  2  3  1  0  0  0
  3  4  2  0  0  0
  4  5  1  0  0  0
  5  6  2  0  0  0
  5  7  2  0  0  0
  5  8  1  0  0  0
  9 15  1  0  0  0
  9 10  1  0  0  0
 10 11  2  0  0  0
 11 12  1  0  0  0
 12 13  2  0  0  0
 12 14  2  0  0  0
 12 15  1  0  0  0
 16 19  1  0  0  0
 16 20  1  0  0  0
 22 24  1  0  0  0
 22 25  1  0  0  0
M  END
> <minimizedAffinity>
-6.59541

$$$$
ZINC000038316469


 24 26  0  0  0  0  0  0  0  0999 V2000
   -6.6780   16.0186   -9.9862 C   0  0  0  0  0  0  0  0  0  0  0  0
   -7.5331   15.9957   -8.9716 C   0  0  0  0  0  0  0  0  0  0  0  0
   -8.2081   17.1639   -8.5936 N   0  0  0  0  0  0  0  0  0  0  0  0
   -9.3055   17.6011   -7.9887 C   0  0  0  0  0  0  0  0  0  0  0  0
  -10.0734   17.0713   -7.2135 O   0  0  0  0  0  0  0  0  0  0  0  0
   -9.2712   18.9840   -8.5959 C   0  0  0  0  0  0  0  0  0  0  0  0
   -9.3509   20.0783   -7.6192 N   0  0  0  0  0  0  0  0  0  0  0  0
   -7.8571   18.5651   -8.9566 C   0  0  0  0  0  0  0  0  0  0  0  0
   -7.4705   18.5672  -10.7395 S   0  0  0  0  0  0  0  0  0  0  0  0
   -6.2607   17.1923  -10.8105 C   0  0  0  0  0  0  0  0  0  0  0  0
   -6.0214   14.4336  -11.2470 H   0  0  0  0  0  0  0  0  0  0  0  0
   -6.0214   14.4336  -11.2470 H   0  0  0  0  0  0  0  0  0  0  0  0
   -6.0214   14.4336  -11.2470 H   0  0  0  0  0  0  0  0  0  0  0  0
   -7.7727   14.7402   -8.2416 C   0  0  0  0  0  0  0  0  0  0  0  0
   -7.0216   14.4065   -7.3353 O   0  0  0  0  0  0  0  0  0  0  0  0
   -8.7231   14.0304   -8.5411 O   0  0  0  0  0  0  0  0  0  0  0  0
   -4.5168   15.9911   -8.0745 H   0  0  0  0  0  0  0  0  0  0  0  0
   -6.0456   14.6992  -10.3473 C   0  0  0  0  0  0  0  0  0  0  0  0
   -5.6491   14.6029  -12.7148 C   0  0  0  0  0  0  0  0  0  0  0  0
   -6.5776   14.2379  -11.6365 N   0  0  0  0  0  0  0  0  0  0  0  0
   -7.8945   14.8639  -11.8808 C   0  0  0  0  0  0  0  0  0  0  0  0
   -8.7263   13.7696  -12.5951 C   0  0  0  0  0  0  0  0  0  0  0  0
   -8.2451   12.4861  -11.8686 C   0  0  0  0  0  0  0  0  0  0  0  0
   -6.7519   12.7741  -11.6063 C   0  0  0  0  0  0  0  0  0  0  0  0
 19 20  1  0  0  0
 20 24  1  0  0  0
 20 18  1  0  0  0
 20 21  1  0  0  0
 18  1  1  0  0  0
  1 10  1  0  0  0
  1  2  2  0  0  0
  2 14  1  0  0  0
  2  3  1  0  0  0
 14 15  2  0  0  0
 14 16  1  0  0  0
  3  8  1  0  0  0
  3  4  1  0  0  0
  4  5  2  0  0  0
  4  6  1  0  0  0
  6  7  1  0  0  0
  6  8  1  0  0  0
  8  9  1  0  0  0
  9 10  1  0  0  0
 21 22  1  0  0  0
 22 23  1  0  0  0
 23 24  1  0  0  0
 16 17  1  0  0  0
  7 11  1  0  0  0
  7 12  1  0  0  0
  7 13  1  0  0  0
M  CHG 1   7   1
M  CHG 1  20   1
M  END
> <minimizedAffinity>
-6.79910

$$$$
ZINC000089779543


 29 31  0  0  0  0  0  0  0  0999 V2000
   -7.4202   18.0799  -10.3650 N   0  0  0  0  0  0  0  0  0  0  0  0
   -7.9388   19.4499  -10.4751 C   0  0  0  0  0  0  0  0  0  0  0  0
   -9.1761   19.5974   -9.5832 C   0  0  0  0  0  0  0  0  0  0  0  0
   -8.8224   19.1740   -8.2198 N   0  0  0  0  0  0  0  0  0  0  0  0
   -8.1713   17.8669   -8.0439 C   0  0  0  0  0  0  0  0  0  0  0  0
   -6.9737   17.7875   -8.9964 C   0  0  0  0  0  0  0  0  0  0  0  0
   -9.0977   19.9914   -7.1212 C   0  0  0  0  0  0  0  0  0  0  0  0
   -9.4296   19.4243   -5.8975 C   0  0  0  0  0  0  0  0  0  0  0  0
   -9.7008   20.2354   -4.8129 C   0  0  0  0  0  0  0  0  0  0  0  0
   -9.6421   21.6106   -4.9443 C   0  0  0  0  0  0  0  0  0  0  0  0
   -9.3123   22.1787   -6.1616 C   0  0  0  0  0  0  0  0  0  0  0  0
   -9.0345   21.3734   -7.2483 C   0  0  0  0  0  0  0  0  0  0  0  0
   -9.2496   23.6780   -6.3001 C   0  0  0  0  0  0  0  0  0  0  0  0
   -9.9199   24.2738   -5.2264 F   0  0  0  0  0  0  0  0  0  0  0  0
   -7.9128   24.0905   -6.3020 F   0  0  0  0  0  0  0  0  0  0  0  0
   -9.8578   24.0612   -7.5001 F   0  0  0  0  0  0  0  0  0  0  0  0
   -6.3398   17.8465  -11.3325 C   0  0  0  0  0  0  0  0  0  0  0  0
   -5.8734   16.3926  -11.2353 C   0  0  0  0  0  0  0  0  0  0  0  0
   -6.3814   15.6117  -12.4490 C   0  0  0  0  0  0  0  0  0  0  0  0
   -7.2903   14.5529  -12.0030 N   0  0  0  0  0  0  0  0  0  0  0  0
   -8.9973   12.5165  -11.1562 H   0  0  0  0  0  0  0  0  0  0  0  0
   -7.2671   13.1694  -10.0197 C   0  0  0  0  0  0  0  0  0  0  0  0
   -6.7834   12.1179   -9.3644 N   0  0  0  0  0  0  0  0  0  0  0  0
   -5.8622   11.3587   -9.9246 C   0  0  0  0  0  0  0  0  0  0  0  0
   -5.3924   11.6500  -11.1955 C   0  0  0  0  0  0  0  0  0  0  0  0
   -5.8631   12.6912  -11.8592 N   0  0  0  0  0  0  0  0  0  0  0  0
   -6.7946   13.4614  -11.3112 C   0  0  0  0  0  0  0  0  0  0  0  0
   -9.0618   14.6522   -8.9360 N   0  0  0  0  0  0  0  0  0  0  0  0
   -8.2679   13.9963   -9.4154 C   0  0  0  0  0  0  0  0  0  0  0  0
 28 29  3  0  0  0
 29 22  1  0  0  0
 22 27  2  0  0  0
 22 23  1  0  0  0
 23 24  2  0  0  0
 24 25  1  0  0  0
 25 26  2  0  0  0
 26 27  1  0  0  0
 27 20  1  0  0  0
 20 19  1  0  0  0
 19 18  1  0  0  0
 18 17  1  0  0  0
 17  1  1  0  0  0
  1  6  1  0  0  0
  1  2  1  0  0  0
  2  3  1  0  0  0
  3  4  1  0  0  0
  4  7  1  0  0  0
  4  5  1  0  0  0
  7 12  1  0  0  0
  7  8  2  0  0  0
  8  9  1  0  0  0
  9 10  2  0  0  0
 10 11  1  0  0  0
 11 13  1  0  0  0
 11 12  2  0  0  0
 13 14  1  0  0  0
 13 15  1  0  0  0
 13 16  1  0  0  0
  5  6  1  0  0  0
 20 21  1  0  0  0
M  END
> <minimizedAffinity>
-7.76788

$$$$
ZINC000071195526


 25 26  0  0  0  0  0  0  0  0999 V2000
   -7.6453   17.3613   -8.2674 C   0  0  0  0  0  0  0  0  0  0  0  0
   -7.8284   18.0416   -9.4710 C   0  0  0  0  0  0  0  0  0  0  0  0
   -8.4549   19.2800   -9.4413 C   0  0  0  0  0  0  0  0  0  0  0  0
   -8.6760   20.0531  -10.7159 C   0  0  0  0  0  0  0  0  0  0  0  0
   -8.8555   19.7730   -8.2830 N   0  0  0  0  0  0  0  0  0  0  0  0
   -8.6673   19.1025   -7.1546 C   0  0  0  0  0  0  0  0  0  0  0  0
   -8.0795   17.9178   -7.1395 N   0  0  0  0  0  0  0  0  0  0  0  0
   -9.1020   19.6546   -5.9619 N   0  0  0  0  0  0  0  0  0  0  0  0
   -9.5152   21.0649   -5.8862 C   0  0  0  0  0  0  0  0  0  0  0  0
  -10.8888   21.1306   -5.2089 C   0  0  0  0  0  0  0  0  0  0  0  0
  -10.8381   20.4166   -3.9713 O   0  0  0  0  0  0  0  0  0  0  0  0
  -10.5558   19.0220   -4.1114 C   0  0  0  0  0  0  0  0  0  0  0  0
   -9.1706   18.8469   -4.7338 C   0  0  0  0  0  0  0  0  0  0  0  0
   -7.3355   15.0883   -9.1386 N   0  0  0  0  0  0  0  0  0  0  0  0
   -6.9812   16.0336   -8.2458 C   0  0  0  0  0  0  0  0  0  0  0  0
   -6.1185   15.7993   -7.4233 O   0  0  0  0  0  0  0  0  0  0  0  0
   -6.8585   10.8676   -8.9523 H   0  0  0  0  0  0  0  0  0  0  0  0
   -6.6803   13.7781   -9.1173 C   0  0  0  0  0  0  0  0  0  0  0  0
   -5.7995   13.6281  -10.3592 C   0  0  0  0  0  0  0  0  0  0  0  0
   -6.2952   14.5140  -11.4211 N   0  0  0  0  0  0  0  0  0  0  0  0
   -5.2178   15.3048  -12.0204 H   0  0  0  0  0  0  0  0  0  0  0  0
   -5.4524   16.7479  -11.9651 C   0  0  0  0  0  0  0  0  0  0  0  0
   -5.1680   15.2454  -12.0146 C   0  0  0  0  0  0  0  0  0  0  0  0
   -6.9589   13.7120  -12.4577 C   0  0  0  0  0  0  0  0  0  0  0  0
   -8.4620   13.9966  -12.4382 C   0  0  0  0  0  0  0  0  0  0  0  0
 22 23  1  0  0  0
 23 20  1  0  0  0
 20 24  1  0  0  0
 20 19  1  0  0  0
 24 25  1  0  0  0
 19 18  1  0  0  0
 18 14  1  0  0  0
 14 15  1  0  0  0
 15 16  2  0  0  0
 15  1  1  0  0  0
  1  7  2  0  0  0
  1  2  1  0  0  0
  2  3  2  0  0  0
  3  4  1  0  0  0
  3  5  1  0  0  0
  5  6  2  0  0  0
  6  8  1  0  0  0
  6  7  1  0  0  0
  8 13  1  0  0  0
  8  9  1  0  0  0
  9 10  1  0  0  0
 10 11  1  0  0  0
 11 12  1  0  0  0
 12 13  1  0  0  0
 20 21  1  0  0  0
 14 17  1  0  0  0
M  CHG 1  20   1
M  END
> <minimizedAffinity>
-6.60022

$$$$
ZINC000021712736


 33 35  0  0  0  0  0  0  0  0999 V2000
   -9.5097   18.1155   -5.1516 C   0  0  0  0  0  0  0  0  0  0  0  0
   -8.6969   18.5129   -6.2173 C   0  0  0  0  0  0  0  0  0  0  0  0
   -7.9680   17.5748   -6.9118 C   0  0  0  0  0  0  0  0  0  0  0  0
   -8.0393   16.2313   -6.5541 C   0  0  0  0  0  0  0  0  0  0  0  0
   -8.8478   15.8324   -5.4933 C   0  0  0  0  0  0  0  0  0  0  0  0
   -9.5752   16.7663   -4.7916 C   0  0  0  0  0  0  0  0  0  0  0  0
  -10.3102   21.0160   -2.7626 C   0  0  0  0  0  0  0  0  0  0  0  0
   -9.2472   21.5950   -1.8052 C   0  0  0  0  0  0  0  0  0  0  0  0
   -8.2531   20.4158   -1.6357 C   0  0  0  0  0  0  0  0  0  0  0  0
   -8.2817   19.7795   -3.0477 C   0  0  0  0  0  0  0  0  0  0  0  0
   -9.6866   19.9001   -3.4889 N   0  0  0  0  0  0  0  0  0  0  0  0
  -10.2922   19.1186   -4.4047 C   0  0  0  0  0  0  0  0  0  0  0  0
  -11.4836   19.2402   -4.6154 O   0  0  0  0  0  0  0  0  0  0  0  0
   -9.8658   22.6239   -4.5890 N   0  0  0  0  0  0  0  0  0  0  0  0
  -10.7548   22.0766   -3.7365 C   0  0  0  0  0  0  0  0  0  0  0  0
  -11.9124   22.4377   -3.7532 O   0  0  0  0  0  0  0  0  0  0  0  0
   -8.5837   23.0092   -7.1527 H   0  0  0  0  0  0  0  0  0  0  0  0
  -10.2979   23.6549   -5.5358 C   0  0  0  0  0  0  0  0  0  0  0  0
   -9.0707   24.2976   -6.1852 C   0  0  0  0  0  0  0  0  0  0  0  0
  -10.0870   26.4672   -6.1123 C   0  0  0  0  0  0  0  0  0  0  0  0
   -8.9638   25.6575   -5.7593 O   0  0  0  0  0  0  0  0  0  0  0  0
   -7.3011   15.2860   -7.2576 N   0  0  0  0  0  0  0  0  0  0  0  0
  -16.6902   21.8130   -2.4264 H   0  0  0  0  0  0  0  0  0  0  0  0
   -7.8466   14.7296   -8.7189 S   0  0  0  0  0  0  0  0  0  0  0  0
   -7.4735   13.3603   -8.7916 O   0  0  0  0  0  0  0  0  0  0  0  0
   -9.1899   15.1765   -8.8423 O   0  0  0  0  0  0  0  0  0  0  0  0
   -6.9279   15.5629   -9.9703 C   0  0  0  0  0  0  0  0  0  0  0  0
   -5.8517   14.9360  -10.5702 C   0  0  0  0  0  0  0  0  0  0  0  0
   -5.1305   15.5886  -11.5518 C   0  0  0  0  0  0  0  0  0  0  0  0
   -5.4864   16.8706  -11.9349 C   0  0  0  0  0  0  0  0  0  0  0  0
   -4.7824   17.5094  -12.8948 F   0  0  0  0  0  0  0  0  0  0  0  0
   -6.5648   17.4974  -11.3338 C   0  0  0  0  0  0  0  0  0  0  0  0
   -7.2875   16.8409  -10.3557 C   0  0  0  0  0  0  0  0  0  0  0  0
 20 21  1  0  0  0
 21 19  1  0  0  0
 19 18  1  0  0  0
 18 14  1  0  0  0
 14 15  1  0  0  0
 15 16  2  0  0  0
 15  7  1  0  0  0
  7 11  1  0  0  0
  7  8  1  0  0  0
  8  9  1  0  0  0
  9 10  1  0  0  0
 10 11  1  0  0  0
 11 12  1  0  0  0
 12 13  2  0  0  0
 12  1  1  0  0  0
  1  6  1  0  0  0
  1  2  2  0  0  0
  2  3  1  0  0  0
  3  4  2  0  0  0
  4 22  1  0  0  0
  4  5  1  0  0  0
 22 24  1  0  0  0
 24 25  2  0  0  0
 24 26  2  0  0  0
 24 27  1  0  0  0
 27 33  1  0  0  0
 27 28  2  0  0  0
 28 29  1  0  0  0
 29 30  2  0  0  0
 30 31  1  0  0  0
 30 32  1  0  0  0
 32 33  2  0  0  0
  5  6  2  0  0  0
 14 17  1  0  0  0
 22 23  1  0  0  0
M  END
> <minimizedAffinity>
-7.70565

$$$$
ZINC000095385148


 30 32  0  0  0  0  0  0  0  0999 V2000
   -7.7702   17.1617   -9.1390 C   0  0  0  0  0  0  0  0  0  0  0  0
   -7.8417   16.0127   -9.5207 O   0  0  0  0  0  0  0  0  0  0  0  0
   -8.7109   17.6562   -8.3101 N   0  0  0  0  0  0  0  0  0  0  0  0
   -8.6412   19.0478   -7.8441 C   0  0  0  0  0  0  0  0  0  0  0  0
   -8.7080   19.0591   -6.3136 C   0  0  0  0  0  0  0  0  0  0  0  0
   -9.9584   18.3049   -5.8559 C   0  0  0  0  0  0  0  0  0  0  0  0
   -9.8792   16.8503   -6.3251 C   0  0  0  0  0  0  0  0  0  0  0  0
   -9.8288   16.8155   -7.8601 C   0  0  0  0  0  0  0  0  0  0  0  0
  -10.0431   18.3420   -4.3898 N   0  0  0  0  0  0  0  0  0  0  0  0
  -11.3717   17.8817   -3.9646 C   0  0  0  0  0  0  0  0  0  0  0  0
  -11.4539   17.9022   -2.4367 C   0  0  0  0  0  0  0  0  0  0  0  0
  -11.2126   19.2694   -1.9543 N   0  0  0  0  0  0  0  0  0  0  0  0
  -11.3393   19.3419   -0.4926 C   0  0  0  0  0  0  0  0  0  0  0  0
   -9.8961   19.7531   -2.3935 C   0  0  0  0  0  0  0  0  0  0  0  0
   -9.8269   19.7173   -3.9218 C   0  0  0  0  0  0  0  0  0  0  0  0
   -6.3177   16.4161  -11.8535 H   0  0  0  0  0  0  0  0  0  0  0  0
   -6.6296   18.0364   -9.5917 C   0  0  0  0  0  0  0  0  0  0  0  0
   -5.2134   16.7638  -11.7642 C   0  0  0  0  0  0  0  0  0  0  0  0
   -6.1909   17.8746  -12.0505 C   0  0  0  0  0  0  0  0  0  0  0  0
   -6.4115   18.2818  -13.3523 C   0  0  0  0  0  0  0  0  0  0  0  0
   -7.3099   19.3022  -13.6152 C   0  0  0  0  0  0  0  0  0  0  0  0
   -7.5269   19.7010  -14.8877 F   0  0  0  0  0  0  0  0  0  0  0  0
   -7.9861   19.9131  -12.5730 C   0  0  0  0  0  0  0  0  0  0  0  0
   -7.7639   19.5041  -11.2716 C   0  0  0  0  0  0  0  0  0  0  0  0
   -6.8707   18.4819  -11.0110 C   0  0  0  0  0  0  0  0  0  0  0  0
   -8.6191   16.1973   -5.7538 C   0  0  0  0  0  0  0  0  0  0  0  0
   -8.9508   14.7836   -5.2719 C   0  0  0  0  0  0  0  0  0  0  0  0
   -9.3478   14.8281   -3.7950 C   0  0  0  0  0  0  0  0  0  0  0  0
  -10.7147   14.4352   -3.6570 O   0  0  0  0  0  0  0  0  0  0  0  0
   -6.1840    8.6347   -5.4394 H   0  0  0  0  0  0  0  0  0  0  0  0
 18 19  1  0  0  0
 19 25  2  0  0  0
 19 20  1  0  0  0
 20 21  2  0  0  0
 21 22  1  0  0  0
 21 23  1  0  0  0
 23 24  2  0  0  0
 24 25  1  0  0  0
 25 17  1  0  0  0
 17  1  1  0  0  0
  1  2  2  0  0  0
  1  3  1  0  0  0
  3  8  1  0  0  0
  3  4  1  0  0  0
  4  5  1  0  0  0
  5  6  1  0  0  0
  6  9  1  0  0  0
  6  7  1  0  0  0
  9 15  1  0  0  0
  9 10  1  0  0  0
 10 11  1  0  0  0
 11 12  1  0  0  0
 12 13  1  0  0  0
 12 14  1  0  0  0
 14 15  1  0  0  0
  7 26  1  0  0  0
  7  8  1  0  0  0
 26 27  1  0  0  0
 27 28  1  0  0  0
 28 29  1  0  0  0
  9 16  1  0  0  0
 29 30  1  0  0  0
M  CHG 1   9   1
M  END
> <minimizedAffinity>
-7.63745

$$$$
ZINC000012453510


 29 30  0  0  0  0  0  0  0  0999 V2000
   -6.4026   12.0840   -9.7441 C   0  0  0  0  0  0  0  0  0  0  0  0
   -6.6926   12.3175  -11.2281 C   0  0  0  0  0  0  0  0  0  0  0  0
   -6.9935   11.0701  -11.8567 O   0  0  0  0  0  0  0  0  0  0  0  0
   -9.8729    5.1429   -5.0374 H   0  0  0  0  0  0  0  0  0  0  0  0
   -5.4656   12.9420  -11.8954 C   0  0  0  0  0  0  0  0  0  0  0  0
   -5.7501   14.3439  -12.2295 N   0  0  0  0  0  0  0  0  0  0  0  0
   -4.9641   15.2554  -11.3881 C   0  0  0  0  0  0  0  0  0  0  0  0
   -5.1748   16.6960  -11.8594 C   0  0  0  0  0  0  0  0  0  0  0  0
   -6.6631   17.0446  -11.7700 C   0  0  0  0  0  0  0  0  0  0  0  0
   -7.4637   16.0510  -12.6163 C   0  0  0  0  0  0  0  0  0  0  0  0
   -7.1867   14.6291  -12.1231 C   0  0  0  0  0  0  0  0  0  0  0  0
   -6.8852   18.4418  -12.2892 C   0  0  0  0  0  0  0  0  0  0  0  0
   -7.5510   19.2240  -11.6527 O   0  0  0  0  0  0  0  0  0  0  0  0
   -6.3436   18.8175  -13.4585 O   0  0  0  0  0  0  0  0  0  0  0  0
   -7.2514   19.3199  -14.4743 C   0  0  0  0  0  0  0  0  0  0  0  0
   -7.3353   12.8245   -8.9542 O   0  0  0  0  0  0  0  0  0  0  0  0
   -7.4050   16.3939   -8.2537 C   0  0  0  0  0  0  0  0  0  0  0  0
   -6.1576   16.5685   -7.6838 C   0  0  0  0  0  0  0  0  0  0  0  0
   -5.3039   15.4903   -7.5390 C   0  0  0  0  0  0  0  0  0  0  0  0
   -5.6958   14.2357   -7.9636 C   0  0  0  0  0  0  0  0  0  0  0  0
   -6.9472   14.0578   -8.5360 C   0  0  0  0  0  0  0  0  0  0  0  0
   -7.8039   15.1400   -8.6750 C   0  0  0  0  0  0  0  0  0  0  0  0
   -8.3327   17.5712   -8.4100 C   0  0  0  0  0  0  0  0  0  0  0  0
   -9.5607   17.3325   -7.6399 N   0  0  0  0  0  0  0  0  0  0  0  0
  -12.4728   16.8373   -5.7383 H   0  0  0  0  0  0  0  0  0  0  0  0
  -12.4728   16.8373   -5.7383 H   0  0  0  0  0  0  0  0  0  0  0  0
   -9.4594   18.0026   -6.3366 C   0  0  0  0  0  0  0  0  0  0  0  0
   -9.4961   20.4419   -6.2386 C   0  0  0  0  0  0  0  0  0  0  0  0
   -8.8193   19.3551   -6.5156 C   0  0  0  0  0  0  0  0  0  0  0  0
 28 29  2  0  0  0
 29 27  1  0  0  0
 27 24  1  0  0  0
 24 23  1  0  0  0
 23 17  1  0  0  0
 17 22  2  0  0  0
 17 18  1  0  0  0
 18 19  2  0  0  0
 19 20  1  0  0  0
 20 21  2  0  0  0
 21 16  1  0  0  0
 21 22  1  0  0  0
 16  1  1  0  0  0
  1  2  1  0  0  0
  2  3  1  0  0  0
  2  5  1  0  0  0
  5  6  1  0  0  0
  6 11  1  0  0  0
  6  7  1  0  0  0
  7  8  1  0  0  0
  8  9  1  0  0  0
  9 12  1  0  0  0
  9 10  1  0  0  0
 12 13  2  0  0  0
 12 14  1  0  0  0
 14 15  1  0  0  0
 10 11  1  0  0  0
 24 25  1  0  0  0
 24 26  1  0  0  0
  3  4  1  0  0  0
M  CHG 1  24   1
M  END
> <minimizedAffinity>
-6.84698

$$$$
ZINC000067384050


 22 25  0  0  0  0  0  0  0  0999 V2000
   -6.9822   18.2247  -11.2607 C   0  0  0  0  0  0  0  0  0  0  0  0
   -7.7600   19.2817  -10.9650 C   0  0  0  0  0  0  0  0  0  0  0  0
   -8.1019   19.1848   -9.6240 N   0  0  0  0  0  0  0  0  0  0  0  0
   -8.8409   19.8790   -8.6740 N   0  0  0  0  0  0  0  0  0  0  0  0
   -8.9054   19.4179   -7.4658 C   0  0  0  0  0  0  0  0  0  0  0  0
   -7.9388   17.9324   -7.4621 S   0  0  0  0  0  0  0  0  0  0  0  0
   -7.5008   18.0530   -9.1727 C   0  0  0  0  0  0  0  0  0  0  0  0
   -6.8400   17.4837  -10.1537 N   0  0  0  0  0  0  0  0  0  0  0  0
   -9.5898   19.9718   -6.3957 N   0  0  0  0  0  0  0  0  0  0  0  0
   -9.8499   19.1893   -5.1775 C   0  0  0  0  0  0  0  0  0  0  0  0
   -9.4018   20.0133   -3.9659 C   0  0  0  0  0  0  0  0  0  0  0  0
  -10.0614   21.3248   -3.9962 N   0  0  0  0  0  0  0  0  0  0  0  0
   -9.6176   22.0808   -5.1741 C   0  0  0  0  0  0  0  0  0  0  0  0
  -10.0715   21.3610   -6.4433 C   0  0  0  0  0  0  0  0  0  0  0  0
   -5.9391   16.1370  -11.4040 H   0  0  0  0  0  0  0  0  0  0  0  0
   -9.7160   22.0728   -2.7799 C   0  0  0  0  0  0  0  0  0  0  0  0
  -10.1895   23.5246   -2.6849 C   0  0  0  0  0  0  0  0  0  0  0  0
  -10.8573   22.4448   -1.8312 C   0  0  0  0  0  0  0  0  0  0  0  0
   -6.9075   18.9222  -13.6392 C   0  0  0  0  0  0  0  0  0  0  0  0
   -6.3793   17.9224  -12.6084 C   0  0  0  0  0  0  0  0  0  0  0  0
   -6.7625   16.5030  -13.0318 C   0  0  0  0  0  0  0  0  0  0  0  0
   -4.8560   18.0354  -12.5226 C   0  0  0  0  0  0  0  0  0  0  0  0
 19 20  1  0  0  0
 20 21  1  0  0  0
 20 22  1  0  0  0
 20  1  1  0  0  0
  1  8  1  0  0  0
  1  2  2  0  0  0
  2  3  1  0  0  0
  3  7  1  0  0  0
  3  4  1  0  0  0
  4  5  2  0  0  0
  5  9  1  0  0  0
  5  6  1  0  0  0
  9 14  1  0  0  0
  9 10  1  0  0  0
 10 11  1  0  0  0
 11 12  1  0  0  0
 12 16  1  0  0  0
 12 13  1  0  0  0
 16 18  1  0  0  0
 16 17  1  0  0  0
 17 18  1  0  0  0
 13 14  1  0  0  0
  6  7  1  0  0  0
  7  8  2  0  0  0
 12 15  1  0  0  0
M  CHG 1  12   1
M  END
> <minimizedAffinity>
-6.39798

$$$$
ZINC000224369394


 23 23  0  0  0  0  0  0  0  0999 V2000
   -8.1199   14.5967   -8.8645 S   0  0  0  0  0  0  0  0  0  0  0  0
   -7.1373   13.9234   -8.0896 O   0  0  0  0  0  0  0  0  0  0  0  0
   -9.2832   13.9567   -9.3709 O   0  0  0  0  0  0  0  0  0  0  0  0
   -9.0948   17.9760   -6.5810 C   0  0  0  0  0  0  0  0  0  0  0  0
  -10.0755   17.1336   -6.7060 N   0  0  0  0  0  0  0  0  0  0  0  0
   -9.8665   16.0864   -7.3797 N   0  0  0  0  0  0  0  0  0  0  0  0
   -8.6825   15.9505   -7.8870 C   0  0  0  0  0  0  0  0  0  0  0  0
   -7.7367   17.3673   -7.4293 S   0  0  0  0  0  0  0  0  0  0  0  0
   -9.3649   20.3319   -6.5362 C   0  0  0  0  0  0  0  0  0  0  0  0
   -9.5254   20.3253   -7.7384 O   0  0  0  0  0  0  0  0  0  0  0  0
   -9.1415   19.1761   -5.8798 N   0  0  0  0  0  0  0  0  0  0  0  0
   -9.4155   21.6373   -5.7769 H   0  0  0  0  0  0  0  0  0  0  0  0
   -9.3301   22.8013   -6.7598 C   0  0  0  0  0  0  0  0  0  0  0  0
   -9.4156   21.6323   -5.7763 C   0  0  0  0  0  0  0  0  0  0  0  0
   -7.3288   15.2324  -10.1730 N   0  0  0  0  0  0  0  0  0  0  0  0
   -6.9190    6.7478   -8.6007 H   0  0  0  0  0  0  0  0  0  0  0  0
   -7.7584   14.8832  -11.5294 C   0  0  0  0  0  0  0  0  0  0  0  0
   -6.5656   14.9789  -12.4828 C   0  0  0  0  0  0  0  0  0  0  0  0
   -5.3124   16.0828  -11.7746 S   0  0  0  0  0  0  0  0  0  0  0  0
   -5.7903   17.7095  -12.4194 C   0  0  0  0  0  0  0  0  0  0  0  0
   -6.5849   17.5314  -13.7147 C   0  0  0  0  0  0  0  0  0  0  0  0
   -6.6554   18.4337  -11.3859 C   0  0  0  0  0  0  0  0  0  0  0  0
   -4.5338   18.5357  -12.7014 C   0  0  0  0  0  0  0  0  0  0  0  0
 13 14  1  0  0  0
 14  9  1  0  0  0
  9 10  2  0  0  0
  9 11  1  0  0  0
 11  4  1  0  0  0
  4  8  1  0  0  0
  4  5  2  0  0  0
  5  6  1  0  0  0
  6  7  2  0  0  0
  7  1  1  0  0  0
  7  8  1  0  0  0
  1  2  2  0  0  0
  1  3  2  0  0  0
  1 15  1  0  0  0
 15 17  1  0  0  0
 17 18  1  0  0  0
 18 19  1  0  0  0
 19 20  1  0  0  0
 20 21  1  0  0  0
 20 22  1  0  0  0
 20 23  1  0  0  0
 11 12  1  0  0  0
 15 16  1  0  0  0
M  END
> <minimizedAffinity>
-6.08157

$$$$
ZINC000016429275


 26 27  0  0  0  0  0  0  0  0999 V2000
   -7.6216   17.8699   -8.6506 N   0  0  0  0  0  0  0  0  0  0  0  0
   -9.6313   19.7212  -10.9270 H   0  0  0  0  0  0  0  0  0  0  0  0
   -8.3558   16.5635   -7.9460 S   0  0  0  0  0  0  0  0  0  0  0  0
   -7.7350   16.3890   -6.6796 O   0  0  0  0  0  0  0  0  0  0  0  0
   -9.7547   16.7546   -8.1060 O   0  0  0  0  0  0  0  0  0  0  0  0
   -7.9340   15.1475   -8.9061 C   0  0  0  0  0  0  0  0  0  0  0  0
   -8.6935   14.8103  -10.0107 C   0  0  0  0  0  0  0  0  0  0  0  0
   -8.3625   13.6993  -10.7640 C   0  0  0  0  0  0  0  0  0  0  0  0
   -7.2718   12.9261  -10.4129 C   0  0  0  0  0  0  0  0  0  0  0  0
   -6.5115   13.2642   -9.3090 C   0  0  0  0  0  0  0  0  0  0  0  0
   -6.8402   14.3772   -8.5580 C   0  0  0  0  0  0  0  0  0  0  0  0
   -6.9179   11.7364  -11.2191 N   0  0  0  0  0  0  0  0  0  0  0  0
   -5.7837   11.6029  -11.6425 O   0  0  0  0  0  0  0  0  0  0  0  0
   -7.7609   10.8906  -11.4592 O   0  0  0  0  0  0  0  0  0  0  0  0
   -8.0027   18.2830  -10.0035 C   0  0  0  0  0  0  0  0  0  0  0  0
   -9.8374   19.5586   -9.2277 O   0  0  0  0  0  0  0  0  0  0  0  0
   -8.8409   19.5331   -9.9298 C   0  0  0  0  0  0  0  0  0  0  0  0
   -8.5198   20.5209  -10.5683 O   0  0  0  0  0  0  0  0  0  0  0  0
   -9.8326   19.5572   -9.2280 H   0  0  0  0  0  0  0  0  0  0  0  0
   -6.7429   18.5613  -10.8258 C   0  0  0  0  0  0  0  0  0  0  0  0
   -6.3019   17.2950  -11.5136 C   0  0  0  0  0  0  0  0  0  0  0  0
   -6.7881   16.7962  -12.6661 C   0  0  0  0  0  0  0  0  0  0  0  0
   -6.1311   15.6584  -12.9357 N   0  0  0  0  0  0  0  0  0  0  0  0
   -5.2561   15.4332  -11.9941 C   0  0  0  0  0  0  0  0  0  0  0  0
   -5.3258   16.4338  -11.0899 N   0  0  0  0  0  0  0  0  0  0  0  0
   -5.9404   21.1484   -9.5225 H   0  0  0  0  0  0  0  0  0  0  0  0
 16 17  2  0  0  0
 17 18  1  0  0  0
 17 15  1  0  0  0
 15 20  1  0  0  0
 15  1  1  0  0  0
 20 21  1  0  0  0
 21 25  1  0  0  0
 21 22  2  0  0  0
 22 23  1  0  0  0
 23 24  2  0  0  0
 24 25  1  0  0  0
  1  3  1  0  0  0
  3  4  2  0  0  0
  3  5  2  0  0  0
  3  6  1  0  0  0
  6 11  1  0  0  0
  6  7  2  0  0  0
  7  8  1  0  0  0
  8  9  2  0  0  0
  9 12  1  0  0  0
  9 10  1  0  0  0
 12 13  1  0  0  0
 12 14  2  0  0  0
 10 11  2  0  0  0
 18 19  1  0  0  0
 25 26  1  0  0  0
  1  2  1  0  0  0
M  CHG 1  12   1
M  CHG 1  13  -1
M  END
> <minimizedAffinity>
-7.14566

$$$$
ZINC000095401015


 23 25  0  0  0  0  0  0  0  0999 V2000
   -7.7256   14.3040  -10.0605 C   0  0  0  0  0  0  0  0  0  0  0  0
   -8.2977   13.2719   -9.7810 O   0  0  0  0  0  0  0  0  0  0  0  0
   -7.7244   15.3315   -9.1884 N   0  0  0  0  0  0  0  0  0  0  0  0
   -7.1457   16.6328   -9.5557 C   0  0  0  0  0  0  0  0  0  0  0  0
   -8.1741   17.7268   -9.2491 C   0  0  0  0  0  0  0  0  0  0  0  0
   -8.6045   17.6113   -7.8493 N   0  0  0  0  0  0  0  0  0  0  0  0
   -9.2844   16.3323   -7.6047 C   0  0  0  0  0  0  0  0  0  0  0  0
   -8.3071   15.1831   -7.8462 C   0  0  0  0  0  0  0  0  0  0  0  0
   -6.5397   13.1195  -11.8196 N   0  0  0  0  0  0  0  0  0  0  0  0
   -7.6685   12.1845  -11.8971 C   0  0  0  0  0  0  0  0  0  0  0  0
   -8.6616   12.6647  -12.9577 C   0  0  0  0  0  0  0  0  0  0  0  0
   -9.1747   14.0561  -12.5759 C   0  0  0  0  0  0  0  0  0  0  0  0
   -7.9824   15.0053  -12.4250 C   0  0  0  0  0  0  0  0  0  0  0  0
   -7.0159   14.4376  -11.3833 C   0  0  0  0  0  0  0  0  0  0  0  0
   -5.2368   13.0079  -10.6626 H   0  0  0  0  0  0  0  0  0  0  0  0
   -5.3692   11.1081  -11.0571 C   0  0  0  0  0  0  0  0  0  0  0  0
   -5.5522   12.6138  -10.8567 C   0  0  0  0  0  0  0  0  0  0  0  0
   -4.2150   13.3239  -11.0770 C   0  0  0  0  0  0  0  0  0  0  0  0
   -9.4587   18.7433   -7.4661 C   0  0  0  0  0  0  0  0  0  0  0  0
   -8.9244   19.7025   -6.4006 C   0  0  0  0  0  0  0  0  0  0  0  0
   -8.9934   20.1456   -7.8634 C   0  0  0  0  0  0  0  0  0  0  0  0
   -9.7634   16.2888   -6.2135 C   0  0  0  0  0  0  0  0  0  0  0  0
  -10.1330   16.2552   -5.1399 N   0  0  0  0  0  0  0  0  0  0  0  0
 16 17  1  0  0  0
 17 18  1  0  0  0
 17  9  1  0  0  0
  9 14  1  0  0  0
  9 10  1  0  0  0
 10 11  1  0  0  0
 11 12  1  0  0  0
 12 13  1  0  0  0
 13 14  1  0  0  0
 14  1  1  0  0  0
  1  2  2  0  0  0
  1  3  1  0  0  0
  3  8  1  0  0  0
  3  4  1  0  0  0
  4  5  1  0  0  0
  5  6  1  0  0  0
  6 19  1  0  0  0
  6  7  1  0  0  0
 19 21  1  0  0  0
 19 20  1  0  0  0
 20 21  1  0  0  0
  7 22  1  0  0  0
  7  8  1  0  0  0
 22 23  3  0  0  0
  9 15  1  0  0  0
M  CHG 1   9   1
M  END
> <minimizedAffinity>
-6.13867

$$$$
ZINC000329026978


 33 35  0  0  0  0  0  0  0  0999 V2000
   -8.5963   17.6751   -7.6942 C   0  0  0  0  0  0  0  0  0  0  0  0
   -8.5597   18.1807   -8.9939 C   0  0  0  0  0  0  0  0  0  0  0  0
   -7.3953   18.0103   -9.7376 C   0  0  0  0  0  0  0  0  0  0  0  0
   -6.3619   17.3741   -9.1863 N   0  0  0  0  0  0  0  0  0  0  0  0
   -6.4341   16.9079   -7.9497 C   0  0  0  0  0  0  0  0  0  0  0  0
   -7.5234   17.0560   -7.2106 N   0  0  0  0  0  0  0  0  0  0  0  0
   -7.3055   18.5302  -11.1248 C   0  0  0  0  0  0  0  0  0  0  0  0
   -8.0301   19.6591  -11.5163 C   0  0  0  0  0  0  0  0  0  0  0  0
   -7.9173   20.1095  -12.8164 C   0  0  0  0  0  0  0  0  0  0  0  0
   -7.1395   19.4895  -13.6825 N   0  0  0  0  0  0  0  0  0  0  0  0
   -6.4394   18.4214  -13.3536 C   0  0  0  0  0  0  0  0  0  0  0  0
   -6.4898   17.9077  -12.0732 C   0  0  0  0  0  0  0  0  0  0  0  0
   -9.7338   17.8213   -6.9153 N   0  0  0  0  0  0  0  0  0  0  0  0
   -9.9558   21.7259   -2.9953 H   0  0  0  0  0  0  0  0  0  0  0  0
   -9.8935   20.7943   -3.9972 C   0  0  0  0  0  0  0  0  0  0  0  0
   -9.2694   21.0463   -5.2098 C   0  0  0  0  0  0  0  0  0  0  0  0
   -9.2163   20.0619   -6.1772 C   0  0  0  0  0  0  0  0  0  0  0  0
   -9.7876   18.8198   -5.9353 C   0  0  0  0  0  0  0  0  0  0  0  0
  -10.4119   18.5682   -4.7204 C   0  0  0  0  0  0  0  0  0  0  0  0
  -10.4600   19.5517   -3.7526 C   0  0  0  0  0  0  0  0  0  0  0  0
  -11.0213   17.2443   -4.4615 N   0  0  0  0  0  0  0  0  0  0  0  0
  -10.3884   16.3875   -3.8708 O   0  0  0  0  0  0  0  0  0  0  0  0
  -12.1558   17.0117   -4.8390 O   0  0  0  0  0  0  0  0  0  0  0  0
  -10.8475   22.8487   -3.2724 C   0  0  0  0  0  0  0  0  0  0  0  0
   -9.9453   21.7640   -3.0451 O   0  0  0  0  0  0  0  0  0  0  0  0
   -5.3397   16.2527   -7.4122 N   0  0  0  0  0  0  0  0  0  0  0  0
  -13.9456   18.4767  -11.7585 H   0  0  0  0  0  0  0  0  0  0  0  0
   -5.3575   14.7950   -7.2667 C   0  0  0  0  0  0  0  0  0  0  0  0
   -5.2598   14.1433   -8.6474 C   0  0  0  0  0  0  0  0  0  0  0  0
   -6.3815   13.2126   -8.8301 N   0  0  0  0  0  0  0  0  0  0  0  0
   -7.4893   13.9063   -9.5005 C   0  0  0  0  0  0  0  0  0  0  0  0
   -5.9459   12.0762   -9.6529 C   0  0  0  0  0  0  0  0  0  0  0  0
   -8.0794   23.2783   -1.5707 H   0  0  0  0  0  0  0  0  0  0  0  0
 24 25  1  0  0  0
 25 15  1  0  0  0
 15 20  2  0  0  0
 15 16  1  0  0  0
 16 17  2  0  0  0
 17 18  1  0  0  0
 18 13  1  0  0  0
 18 19  2  0  0  0
 13  1  1  0  0  0
  1  6  1  0  0  0
  1  2  2  0  0  0
  2  3  1  0  0  0
  3  7  1  0  0  0
  3  4  2  0  0  0
  7 12  1  0  0  0
  7  8  2  0  0  0
  8  9  1  0  0  0
  9 10  2  0  0  0
 10 11  1  0  0  0
 11 12  2  0  0  0
  4  5  1  0  0  0
  5 26  1  0  0  0
  5  6  2  0  0  0
 26 28  1  0  0  0
 28 29  1  0  0  0
 29 30  1  0  0  0
 30 31  1  0  0  0
 30 32  1  0  0  0
 19 21  1  0  0  0
 19 20  1  0  0  0
 21 22  1  0  0  0
 21 23  2  0  0  0
 13 14  1  0  0  0
 26 27  1  0  0  0
 30 33  1  0  0  0
M  CHG 1  21   1
M  CHG 1  22  -1
M  CHG 1  30   1
M  END
> <minimizedAffinity>
-7.46238

$$$$
ZINC000069599702


 25 27  0  0  0  0  0  0  0  0999 V2000
   -7.5238   17.5999   -8.1583 C   0  0  0  0  0  0  0  0  0  0  0  0
   -7.3896   17.8120   -9.3484 O   0  0  0  0  0  0  0  0  0  0  0  0
   -7.0017   16.4853   -7.6093 N   0  0  0  0  0  0  0  0  0  0  0  0
   -8.3369   19.7007   -5.0308 H   0  0  0  0  0  0  0  0  0  0  0  0
   -9.7431   19.8619   -4.1593 C   0  0  0  0  0  0  0  0  0  0  0  0
   -9.2304   19.5428   -5.5401 C   0  0  0  0  0  0  0  0  0  0  0  0
   -8.5410   18.4404   -5.8832 C   0  0  0  0  0  0  0  0  0  0  0  0
   -8.2569   18.5611   -7.3172 C   0  0  0  0  0  0  0  0  0  0  0  0
   -8.8108   19.7465   -7.7155 C   0  0  0  0  0  0  0  0  0  0  0  0
   -8.7788   20.3091   -9.1132 C   0  0  0  0  0  0  0  0  0  0  0  0
   -9.3951   20.3225   -6.6477 N   0  0  0  0  0  0  0  0  0  0  0  0
  -10.0983   21.6075   -6.6699 C   0  0  0  0  0  0  0  0  0  0  0  0
   -9.0829   22.7465   -6.5581 C   0  0  0  0  0  0  0  0  0  0  0  0
   -9.6244   24.1775   -6.5493 C   0  0  0  0  0  0  0  0  0  0  0  0
   -9.0735   23.5600   -5.2623 C   0  0  0  0  0  0  0  0  0  0  0  0
   -6.2724   15.5291   -8.4460 C   0  0  0  0  0  0  0  0  0  0  0  0
   -5.2541   14.7744   -7.5891 C   0  0  0  0  0  0  0  0  0  0  0  0
   -7.2436   14.5491   -9.0520 C   0  0  0  0  0  0  0  0  0  0  0  0
   -8.0150   13.9410   -8.3405 O   0  0  0  0  0  0  0  0  0  0  0  0
   -7.2550   14.3482  -10.3847 N   0  0  0  0  0  0  0  0  0  0  0  0
   -6.2523   14.9827  -11.2550 C   0  0  0  0  0  0  0  0  0  0  0  0
   -5.6360   13.9017  -12.1504 C   0  0  0  0  0  0  0  0  0  0  0  0
   -6.6821   13.1817  -12.8070 O   0  0  0  0  0  0  0  0  0  0  0  0
   -7.5558   12.4796  -11.9196 C   0  0  0  0  0  0  0  0  0  0  0  0
   -8.2670   13.4831  -11.0117 C   0  0  0  0  0  0  0  0  0  0  0  0
  5  6  1  0  0  0
  6 11  1  0  0  0
  6  7  2  0  0  0
  7  8  1  0  0  0
  8  1  1  0  0  0
  8  9  2  0  0  0
  1  2  2  0  0  0
  1  3  1  0  0  0
  3 16  1  0  0  0
 16 17  1  0  0  0
 16 18  1  0  0  0
 18 19  2  0  0  0
 18 20  1  0  0  0
 20 25  1  0  0  0
 20 21  1  0  0  0
 21 22  1  0  0  0
 22 23  1  0  0  0
 23 24  1  0  0  0
 24 25  1  0  0  0
  9 10  1  0  0  0
  9 11  1  0  0  0
 11 12  1  0  0  0
 12 13  1  0  0  0
 13 15  1  0  0  0
 13 14  1  0  0  0
 14 15  1  0  0  0
  3  4  1  0  0  0
M  END
> <minimizedAffinity>
-7.58353

$$$$
ZINC000271778083


 33 35  0  0  0  0  0  0  0  0999 V2000
   -6.4384   16.7355  -10.0621 C   0  0  0  0  0  0  0  0  0  0  0  0
   -6.7881   15.6069  -10.9975 C   0  0  0  0  0  0  0  0  0  0  0  0
   -7.4608   15.8226  -11.9833 O   0  0  0  0  0  0  0  0  0  0  0  0
   -6.3531   14.3578  -10.7386 N   0  0  0  0  0  0  0  0  0  0  0  0
   -5.5370   13.9553   -9.5787 C   0  0  0  0  0  0  0  0  0  0  0  0
   -5.8278   12.4450   -9.3941 C   0  0  0  0  0  0  0  0  0  0  0  0
   -5.9464   11.9685  -10.8659 C   0  0  0  0  0  0  0  0  0  0  0  0
   -6.6192   13.1697  -11.5628 C   0  0  0  0  0  0  0  0  0  0  0  0
   -8.1032   12.9326  -11.6739 C   0  0  0  0  0  0  0  0  0  0  0  0
   -8.6692   12.7588  -12.8846 N   0  0  0  0  0  0  0  0  0  0  0  0
   -8.7883   12.8980  -10.6736 O   0  0  0  0  0  0  0  0  0  0  0  0
   -9.3703   17.0525   -2.5148 H   0  0  0  0  0  0  0  0  0  0  0  0
   -9.3703   17.0525   -2.5148 H   0  0  0  0  0  0  0  0  0  0  0  0
   -7.6547   16.9660   -7.9633 C   0  0  0  0  0  0  0  0  0  0  0  0
   -6.6937   16.4995   -7.3890 O   0  0  0  0  0  0  0  0  0  0  0  0
   -7.6282   17.1255   -9.3013 N   0  0  0  0  0  0  0  0  0  0  0  0
  -10.4590   16.6392   -4.5665 H   0  0  0  0  0  0  0  0  0  0  0  0
   -8.5892   19.1219   -3.6426 C   0  0  0  0  0  0  0  0  0  0  0  0
   -9.7335   19.0185   -4.6530 C   0  0  0  0  0  0  0  0  0  0  0  0
  -10.2358   17.2794   -4.8271 S   0  0  0  0  0  0  0  0  0  0  0  0
   -8.8807   16.6193   -5.8480 C   0  0  0  0  0  0  0  0  0  0  0  0
   -8.8785   17.3672   -7.1808 C   0  0  0  0  0  0  0  0  0  0  0  0
   -8.8715   18.8027   -7.0080 N   0  0  0  0  0  0  0  0  0  0  0  0
   -9.2742   19.5339   -5.9863 C   0  0  0  0  0  0  0  0  0  0  0  0
   -9.2725   20.7370   -6.1398 O   0  0  0  0  0  0  0  0  0  0  0  0
   -9.7318   19.0171   -4.6485 H   0  0  0  0  0  0  0  0  0  0  0  0
   -5.9361   17.9323  -10.8721 C   0  0  0  0  0  0  0  0  0  0  0  0
   -6.9747   19.0241  -10.8521 C   0  0  0  0  0  0  0  0  0  0  0  0
   -7.8425   19.3245  -11.8371 C   0  0  0  0  0  0  0  0  0  0  0  0
   -8.5945   20.3567  -11.4270 N   0  0  0  0  0  0  0  0  0  0  0  0
   -8.2257   20.7072  -10.2252 C   0  0  0  0  0  0  0  0  0  0  0  0
   -7.2213   19.8971   -9.8271 N   0  0  0  0  0  0  0  0  0  0  0  0
  -12.9629   15.8580  -12.6826 H   0  0  0  0  0  0  0  0  0  0  0  0
 18 19  1  0  0  0
 19 24  1  0  0  0
 19 20  1  0  0  0
 20 21  1  0  0  0
 21 22  1  0  0  0
 22 14  1  0  0  0
 22 23  1  0  0  0
 14 15  2  0  0  0
 14 16  1  0  0  0
 16  1  1  0  0  0
  1 27  1  0  0  0
  1  2  1  0  0  0
 27 28  1  0  0  0
 28 32  1  0  0  0
 28 29  2  0  0  0
 29 30  1  0  0  0
 30 31  2  0  0  0
 31 32  1  0  0  0
  2  3  2  0  0  0
  2  4  1  0  0  0
  4  8  1  0  0  0
  4  5  1  0  0  0
  5  6  1  0  0  0
  6  7  1  0  0  0
  7  8  1  0  0  0
  8  9  1  0  0  0
  9 10  1  0  0  0
  9 11  2  0  0  0
 23 24  1  0  0  0
 24 25  2  0  0  0
 16 17  1  0  0  0
 32 33  1  0  0  0
 10 12  1  0  0  0
 10 13  1  0  0  0
 23 26  1  0  0  0
M  END
> <minimizedAffinity>
-6.97847

$$$$
ZINC000254628835


 38 41  0  0  0  0  0  0  0  0999 V2000
   -7.3235   17.7156   -9.1846 C   0  0  0  0  0  0  0  0  0  0  0  0
   -7.7619   18.7584   -9.8461 N   0  0  0  0  0  0  0  0  0  0  0  0
   -7.4089   18.6418  -11.1492 C   0  0  0  0  0  0  0  0  0  0  0  0
   -6.7058   17.4421  -11.2875 C   0  0  0  0  0  0  0  0  0  0  0  0
   -6.2393   17.0833  -12.4913 N   0  0  0  0  0  0  0  0  0  0  0  0
   -6.4283   17.8332  -13.5410 C   0  0  0  0  0  0  0  0  0  0  0  0
   -7.1020   19.0095  -13.4761 N   0  0  0  0  0  0  0  0  0  0  0  0
   -7.6050   19.4450  -12.2995 C   0  0  0  0  0  0  0  0  0  0  0  0
   -8.2124   20.5000  -12.2305 O   0  0  0  0  0  0  0  0  0  0  0  0
   -6.6591   16.8779  -10.0380 N   0  0  0  0  0  0  0  0  0  0  0  0
  -11.6870   23.1263   -3.3765 H   0  0  0  0  0  0  0  0  0  0  0  0
   -6.0220   15.6071   -9.6841 C   0  0  0  0  0  0  0  0  0  0  0  0
   -5.3445   15.0480  -10.8304 O   0  0  0  0  0  0  0  0  0  0  0  0
   -5.1983   13.6413  -10.5374 C   0  0  0  0  0  0  0  0  0  0  0  0
   -6.5358   13.2341   -9.8802 C   0  0  0  0  0  0  0  0  0  0  0  0
   -7.4296   12.6953  -10.8563 O   0  0  0  0  0  0  0  0  0  0  0  0
   -7.0899   14.5580   -9.3030 C   0  0  0  0  0  0  0  0  0  0  0  0
   -8.3458   14.8793   -9.9042 O   0  0  0  0  0  0  0  0  0  0  0  0
  -11.8285   18.7319  -18.9001 H   0  0  0  0  0  0  0  0  0  0  0  0
  -11.8285   18.7319  -18.9001 H   0  0  0  0  0  0  0  0  0  0  0  0
   -4.9728   12.8492  -11.8268 C   0  0  0  0  0  0  0  0  0  0  0  0
   -5.2325   13.6891  -12.9533 O   0  0  0  0  0  0  0  0  0  0  0  0
  -14.6329    6.6607  -11.9755 H   0  0  0  0  0  0  0  0  0  0  0  0
   -7.5001   17.4985   -7.8319 N   0  0  0  0  0  0  0  0  0  0  0  0
  -11.2965   23.3323   -3.2924 H   0  0  0  0  0  0  0  0  0  0  0  0
   -8.5144   18.1754   -5.8368 C   0  0  0  0  0  0  0  0  0  0  0  0
   -8.1363   18.4668   -7.0441 N   0  0  0  0  0  0  0  0  0  0  0  0
  -10.4408   21.1095   -3.4430 C   0  0  0  0  0  0  0  0  0  0  0  0
   -9.4256   20.3333   -2.9044 C   0  0  0  0  0  0  0  0  0  0  0  0
   -8.7976   19.3796   -3.6784 C   0  0  0  0  0  0  0  0  0  0  0  0
   -9.1839   19.1943   -5.0079 C   0  0  0  0  0  0  0  0  0  0  0  0
  -10.2070   19.9768   -5.5502 C   0  0  0  0  0  0  0  0  0  0  0  0
  -10.8354   20.9263   -4.7667 C   0  0  0  0  0  0  0  0  0  0  0  0
  -11.8316   21.6892   -5.2910 O   0  0  0  0  0  0  0  0  0  0  0  0
  -10.6028   22.1863   -1.3235 H   0  0  0  0  0  0  0  0  0  0  0  0
  -11.0565   22.0480   -2.6756 O   0  0  0  0  0  0  0  0  0  0  0  0
   -9.8176   24.0712   -3.1363 C   0  0  0  0  0  0  0  0  0  0  0  0
  -10.2249   23.0444   -2.0776 C   0  0  0  0  0  0  0  0  0  0  0  0
 37 38  1  0  0  0
 38 36  1  0  0  0
 36 28  1  0  0  0
 28 33  2  0  0  0
 28 29  1  0  0  0
 29 30  2  0  0  0
 30 31  1  0  0  0
 31 26  1  0  0  0
 31 32  2  0  0  0
 26 27  2  0  0  0
 27 24  1  0  0  0
 24  1  1  0  0  0
  1 10  1  0  0  0
  1  2  2  0  0  0
  2  3  1  0  0  0
  3  8  1  0  0  0
  3  4  2  0  0  0
  4  5  1  0  0  0
  4 10  1  0  0  0
  5  6  2  0  0  0
  6  7  1  0  0  0
  7  8  1  0  0  0
  8  9  2  0  0  0
 10 12  1  0  0  0
 12 17  1  0  0  0
 12 13  1  0  0  0
 13 14  1  0  0  0
 14 21  1  0  0  0
 14 15  1  0  0  0
 21 22  1  0  0  0
 15 16  1  0  0  0
 15 17  1  0  0  0
 17 18  1  0  0  0
 32 33  1  0  0  0
 33 34  1  0  0  0
 24 25  1  0  0  0
  7 11  1  0  0  0
 22 23  1  0  0  0
 16 19  1  0  0  0
 18 20  1  0  0  0
 34 35  1  0  0  0
M  END
> <minimizedAffinity>
-8.35255

$$$$
ZINC000002149517


 20 20  0  0  0  0  0  0  0  0999 V2000
   -6.1730   16.5887  -10.5353 C   0  0  0  0  0  0  0  0  0  0  0  0
   -6.7569   16.6222   -9.2763 C   0  0  0  0  0  0  0  0  0  0  0  0
   -7.5328   17.7030   -8.9049 C   0  0  0  0  0  0  0  0  0  0  0  0
   -7.7281   18.7508   -9.7857 C   0  0  0  0  0  0  0  0  0  0  0  0
   -7.1477   18.7202  -11.0407 C   0  0  0  0  0  0  0  0  0  0  0  0
   -6.3663   17.6452  -11.4156 C   0  0  0  0  0  0  0  0  0  0  0  0
   -8.5598   19.9076   -9.3844 N   0  0  0  0  0  0  0  0  0  0  0  0
   -8.6071   20.8981  -10.0916 O   0  0  0  0  0  0  0  0  0  0  0  0
   -9.1968   19.8691   -8.3470 O   0  0  0  0  0  0  0  0  0  0  0  0
   -5.7454   17.6132  -12.7589 N   0  0  0  0  0  0  0  0  0  0  0  0
   -6.3275   17.0797  -13.6863 O   0  0  0  0  0  0  0  0  0  0  0  0
   -4.6525   18.1205  -12.9370 O   0  0  0  0  0  0  0  0  0  0  0  0
   -5.4100   15.5279  -10.9031 O   0  0  0  0  0  0  0  0  0  0  0  0
   -6.0691   13.6032  -12.1645 C   0  0  0  0  0  0  0  0  0  0  0  0
   -5.3964   14.0041  -13.0946 O   0  0  0  0  0  0  0  0  0  0  0  0
   -6.1296   14.3141  -11.0211 N   0  0  0  0  0  0  0  0  0  0  0  0
   -6.6432   11.7314  -13.5340 H   0  0  0  0  0  0  0  0  0  0  0  0
   -6.7538   12.4483  -12.2768 O   0  0  0  0  0  0  0  0  0  0  0  0
   -8.9355   13.3895  -12.8102 C   0  0  0  0  0  0  0  0  0  0  0  0
   -8.1492   12.4675  -11.8759 C   0  0  0  0  0  0  0  0  0  0  0  0
 19 20  1  0  0  0
 20 18  1  0  0  0
 18 14  1  0  0  0
 14 15  2  0  0  0
 14 16  1  0  0  0
 16 13  1  0  0  0
 13  1  1  0  0  0
  1  6  2  0  0  0
  1  2  1  0  0  0
  2  3  2  0  0  0
  3  4  1  0  0  0
  4  7  1  0  0  0
  4  5  2  0  0  0
  7  8  1  0  0  0
  7  9  2  0  0  0
  5  6  1  0  0  0
  6 10  1  0  0  0
 10 11  1  0  0  0
 10 12  2  0  0  0
 16 17  1  0  0  0
M  CHG 1   7   1
M  CHG 1   8  -1
M  CHG 1  10   1
M  CHG 1  11  -1
M  END
> <minimizedAffinity>
-6.75632

$$$$
ZINC000257273234


 26 28  0  0  0  0  0  0  0  0999 V2000
   -9.0054   18.2856   -5.9621 C   0  0  0  0  0  0  0  0  0  0  0  0
   -9.4457   17.9997   -4.8654 O   0  0  0  0  0  0  0  0  0  0  0  0
   -8.4009   17.3430   -6.7122 N   0  0  0  0  0  0  0  0  0  0  0  0
   -7.7542   17.7005   -7.9822 C   0  0  0  0  0  0  0  0  0  0  0  0
   -8.3303   16.8147   -9.0934 C   0  0  0  0  0  0  0  0  0  0  0  0
   -8.2077   15.3531   -8.6905 C   0  0  0  0  0  0  0  0  0  0  0  0
   -8.7086   14.4328   -9.8208 C   0  0  0  0  0  0  0  0  0  0  0  0
   -7.5709   14.3309  -10.7553 N   0  0  0  0  0  0  0  0  0  0  0  0
   -7.6554   14.0199  -12.0640 C   0  0  0  0  0  0  0  0  0  0  0  0
   -8.9989   13.7407  -12.6870 C   0  0  0  0  0  0  0  0  0  0  0  0
   -6.6502   13.9648  -12.7403 O   0  0  0  0  0  0  0  0  0  0  0  0
   -6.3298   14.6249  -10.0229 C   0  0  0  0  0  0  0  0  0  0  0  0
   -5.6274   15.8296  -10.6525 C   0  0  0  0  0  0  0  0  0  0  0  0
   -6.7228   14.9492   -8.5648 C   0  0  0  0  0  0  0  0  0  0  0  0
   -8.9497   15.0654   -7.3942 C   0  0  0  0  0  0  0  0  0  0  0  0
   -8.3722   15.9420   -6.2705 C   0  0  0  0  0  0  0  0  0  0  0  0
   -9.4387   21.8188   -6.7083 C   0  0  0  0  0  0  0  0  0  0  0  0
   -9.1323   21.2684   -7.8470 N   0  0  0  0  0  0  0  0  0  0  0  0
   -8.9585   20.0767   -7.7414 O   0  0  0  0  0  0  0  0  0  0  0  0
   -9.1329   19.6639   -6.4717 C   0  0  0  0  0  0  0  0  0  0  0  0
   -9.4462   20.7824   -5.7485 C   0  0  0  0  0  0  0  0  0  0  0  0
   -8.4245   23.9944   -6.0861 C   0  0  0  0  0  0  0  0  0  0  0  0
   -9.7233   23.2778   -6.4609 C   0  0  0  0  0  0  0  0  0  0  0  0
   -5.4045   13.4070  -10.0571 C   0  0  0  0  0  0  0  0  0  0  0  0
   -5.9887   12.3435   -9.3022 O   0  0  0  0  0  0  0  0  0  0  0  0
  -11.0066   22.6953  -13.5359 H   0  0  0  0  0  0  0  0  0  0  0  0
 22 23  1  0  0  0
 23 17  1  0  0  0
 17 21  1  0  0  0
 17 18  2  0  0  0
 18 19  1  0  0  0
 19 20  1  0  0  0
 20  1  1  0  0  0
 20 21  2  0  0  0
  1  2  2  0  0  0
  1  3  1  0  0  0
  3 16  1  0  0  0
  3  4  1  0  0  0
  4  5  1  0  0  0
  5  6  1  0  0  0
  6 14  1  0  0  0
  6  7  1  0  0  0
  6 15  1  0  0  0
  7  8  1  0  0  0
  8  9  1  0  0  0
  8 12  1  0  0  0
  9 10  1  0  0  0
  9 11  2  0  0  0
 12 13  1  0  0  0
 12 24  1  0  0  0
 12 14  1  0  0  0
 24 25  1  0  0  0
 15 16  1  0  0  0
 25 26  1  0  0  0
M  END
> <minimizedAffinity>
-8.00469

$$$$
ZINC000329000679


 28 30  0  0  0  0  0  0  0  0999 V2000
   -7.8136   16.7292   -7.7964 C   0  0  0  0  0  0  0  0  0  0  0  0
   -8.0907   17.5210   -8.9127 C   0  0  0  0  0  0  0  0  0  0  0  0
   -8.7672   18.7106   -8.7252 C   0  0  0  0  0  0  0  0  0  0  0  0
   -9.1310   19.0634   -7.5011 N   0  0  0  0  0  0  0  0  0  0  0  0
   -8.8547   18.2922   -6.4596 C   0  0  0  0  0  0  0  0  0  0  0  0
   -8.2130   17.1420   -6.5976 N   0  0  0  0  0  0  0  0  0  0  0  0
   -1.8900   13.4964   -8.5154 H   0  0  0  0  0  0  0  0  0  0  0  0
   -9.0886   19.5974   -9.9005 C   0  0  0  0  0  0  0  0  0  0  0  0
   -8.0949   20.7109  -10.2378 C   0  0  0  0  0  0  0  0  0  0  0  0
   -8.1984   19.4789  -11.1391 C   0  0  0  0  0  0  0  0  0  0  0  0
   -7.1374   15.5284   -7.9369 N   0  0  0  0  0  0  0  0  0  0  0  0
   -3.1396   12.4286   -5.4056 H   0  0  0  0  0  0  0  0  0  0  0  0
   -5.7939   15.5082   -8.5209 C   0  0  0  0  0  0  0  0  0  0  0  0
   -6.2331   12.8824  -11.1979 C   0  0  0  0  0  0  0  0  0  0  0  0
   -5.9282   13.5989  -12.3398 C   0  0  0  0  0  0  0  0  0  0  0  0
   -5.5793   14.9334  -12.2460 C   0  0  0  0  0  0  0  0  0  0  0  0
   -5.5359   15.5512  -11.0105 C   0  0  0  0  0  0  0  0  0  0  0  0
   -5.8418   14.8348   -9.8682 C   0  0  0  0  0  0  0  0  0  0  0  0
   -6.1947   13.5018   -9.9623 C   0  0  0  0  0  0  0  0  0  0  0  0
   -6.0477   10.6274  -10.5993 O   0  0  0  0  0  0  0  0  0  0  0  0
   -6.6067   11.4536  -11.2983 N   0  0  0  0  0  0  0  0  0  0  0  0
   -7.4765   11.1048  -12.0763 O   0  0  0  0  0  0  0  0  0  0  0  0
   -9.2518   18.6961   -5.1969 N   0  0  0  0  0  0  0  0  0  0  0  0
   -8.4904   23.1418  -13.6764 H   0  0  0  0  0  0  0  0  0  0  0  0
   -9.8916   17.7404   -4.2895 C   0  0  0  0  0  0  0  0  0  0  0  0
  -11.4045   17.9693   -4.2915 C   0  0  0  0  0  0  0  0  0  0  0  0
  -12.0506   16.8770   -4.9483 O   0  0  0  0  0  0  0  0  0  0  0  0
   -4.4370   13.9695  -12.9658 H   0  0  0  0  0  0  0  0  0  0  0  0
 20 21  1  0  0  0
 21 22  2  0  0  0
 21 14  1  0  0  0
 14 19  2  0  0  0
 14 15  1  0  0  0
 15 16  2  0  0  0
 16 17  1  0  0  0
 17 18  2  0  0  0
 18 13  1  0  0  0
 18 19  1  0  0  0
 13 11  1  0  0  0
 11  1  1  0  0  0
  1  6  1  0  0  0
  1  2  2  0  0  0
  2  3  1  0  0  0
  3  8  1  0  0  0
  3  4  2  0  0  0
  8 10  1  0  0  0
  8  9  1  0  0  0
  9 10  1  0  0  0
  4  5  1  0  0  0
  5 23  1  0  0  0
  5  6  2  0  0  0
 23 25  1  0  0  0
 25 26  1  0  0  0
 26 27  1  0  0  0
 11 12  1  0  0  0
  4  7  1  0  0  0
 23 24  1  0  0  0
 27 28  1  0  0  0
M  CHG 1   4   1
M  CHG 1  20  -1
M  CHG 1  21   1
M  END
> <minimizedAffinity>
-7.41397

$$$$
ZINC000252515354


 20 21  0  0  0  0  0  0  0  0999 V2000
   -8.6000   18.9298   -9.7629 C   0  0  0  0  0  0  0  0  0  0  0  0
   -9.1781   19.3759   -8.3964 C   0  0  0  0  0  0  0  0  0  0  0  0
   -8.7600   18.2856   -7.4784 N   0  0  0  0  0  0  0  0  0  0  0  0
   -8.7622   18.7643   -6.0895 C   0  0  0  0  0  0  0  0  0  0  0  0
   -7.3882   17.9160   -7.8898 C   0  0  0  0  0  0  0  0  0  0  0  0
   -7.2440   18.2944   -9.3786 C   0  0  0  0  0  0  0  0  0  0  0  0
   -9.4486   20.8411  -11.0812 H   0  0  0  0  0  0  0  0  0  0  0  0
   -6.9794   17.0642  -10.2078 C   0  0  0  0  0  0  0  0  0  0  0  0
   -7.7660   15.9391  -10.0457 C   0  0  0  0  0  0  0  0  0  0  0  0
   -7.5233   14.8106  -10.8062 C   0  0  0  0  0  0  0  0  0  0  0  0
   -6.4943   14.8074  -11.7292 C   0  0  0  0  0  0  0  0  0  0  0  0
   -5.7085   15.9328  -11.8923 C   0  0  0  0  0  0  0  0  0  0  0  0
   -5.9537   17.0627  -11.1344 C   0  0  0  0  0  0  0  0  0  0  0  0
   -6.2341   13.5988  -12.5432 N   0  0  0  0  0  0  0  0  0  0  0  0
   -5.3955   13.6281  -13.4261 O   0  0  0  0  0  0  0  0  0  0  0  0
   -6.8586   12.5750  -12.3303 O   0  0  0  0  0  0  0  0  0  0  0  0
   -8.3950   20.1170  -10.6683 C   0  0  0  0  0  0  0  0  0  0  0  0
   -7.9702   21.1544  -10.2175 O   0  0  0  0  0  0  0  0  0  0  0  0
   -7.5747   19.7798  -12.8804 C   0  0  0  0  0  0  0  0  0  0  0  0
   -8.6843   20.0218  -11.9756 O   0  0  0  0  0  0  0  0  0  0  0  0
 19 20  1  0  0  0
 20 17  1  0  0  0
 17 18  2  0  0  0
 17  1  1  0  0  0
  1  6  1  0  0  0
  1  2  1  0  0  0
  2  3  1  0  0  0
  3  4  1  0  0  0
  3  5  1  0  0  0
  5  6  1  0  0  0
  6  8  1  0  0  0
  8 13  1  0  0  0
  8  9  2  0  0  0
  9 10  1  0  0  0
 10 11  2  0  0  0
 11 14  1  0  0  0
 11 12  1  0  0  0
 14 15  1  0  0  0
 14 16  2  0  0  0
 12 13  2  0  0  0
  3  7  1  0  0  0
M  CHG 1   3   1
M  CHG 1  14   1
M  CHG 1  15  -1
M  END
> <minimizedAffinity>
-7.05420

$$$$
ZINC000072372408


 34 37  0  0  0  0  0  0  0  0999 V2000
   -8.0362   15.5515   -7.4385 C   0  0  0  0  0  0  0  0  0  0  0  0
   -8.9971   15.0027   -8.4956 C   0  0  0  0  0  0  0  0  0  0  0  0
   -8.2053   14.1976   -9.5309 C   0  0  0  0  0  0  0  0  0  0  0  0
   -7.1342   15.0459  -10.0712 N   0  0  0  0  0  0  0  0  0  0  0  0
   -7.0042   15.2240  -11.4008 C   0  0  0  0  0  0  0  0  0  0  0  0
   -7.7754   14.6816  -12.1636 O   0  0  0  0  0  0  0  0  0  0  0  0
   -6.2081   15.6967   -9.1346 C   0  0  0  0  0  0  0  0  0  0  0  0
   -7.0222   16.4851   -8.1039 C   0  0  0  0  0  0  0  0  0  0  0  0
  -10.2845   16.2994   -4.6325 C   0  0  0  0  0  0  0  0  0  0  0  0
   -9.5805   15.6535   -5.5551 N   0  0  0  0  0  0  0  0  0  0  0  0
   -8.8158   16.3157   -6.3997 C   0  0  0  0  0  0  0  0  0  0  0  0
   -8.7160   17.6272   -6.3595 N   0  0  0  0  0  0  0  0  0  0  0  0
   -9.3889   18.3436   -5.4623 C   0  0  0  0  0  0  0  0  0  0  0  0
  -10.2097   17.6974   -4.5717 C   0  0  0  0  0  0  0  0  0  0  0  0
  -11.0329   18.4168   -3.5404 C   0  0  0  0  0  0  0  0  0  0  0  0
  -10.4806   19.8200   -3.2888 C   0  0  0  0  0  0  0  0  0  0  0  0
  -10.2303   20.4511   -4.5952 N   0  0  0  0  0  0  0  0  0  0  0  0
  -10.9097   21.5483   -4.9839 C   0  0  0  0  0  0  0  0  0  0  0  0
  -10.5462   22.2429   -6.2710 C   0  0  0  0  0  0  0  0  0  0  0  0
  -11.8136   21.9766   -4.2980 O   0  0  0  0  0  0  0  0  0  0  0  0
   -9.2171   19.8401   -5.4616 C   0  0  0  0  0  0  0  0  0  0  0  0
  -10.4774   14.8117   -2.6717 C   0  0  0  0  0  0  0  0  0  0  0  0
  -11.0868   15.6004   -3.7455 N   0  0  0  0  0  0  0  0  0  0  0  0
  -11.3974   15.8922   -3.3135 H   0  0  0  0  0  0  0  0  0  0  0  0
   -5.9004   16.0971  -11.9397 C   0  0  0  0  0  0  0  0  0  0  0  0
   -6.4295   16.9205  -13.1157 C   0  0  0  0  0  0  0  0  0  0  0  0
   -6.4296   18.4038  -12.7407 C   0  0  0  0  0  0  0  0  0  0  0  0
   -6.8682   19.2350  -13.9480 C   0  0  0  0  0  0  0  0  0  0  0  0
   -7.3618   18.6273  -11.6276 N   0  0  0  0  0  0  0  0  0  0  0  0
   -6.6148   19.0170  -10.4044 C   0  0  0  0  0  0  0  0  0  0  0  0
   -7.6863   19.7396   -9.5497 C   0  0  0  0  0  0  0  0  0  0  0  0
   -8.5131   20.5059  -10.6076 C   0  0  0  0  0  0  0  0  0  0  0  0
   -8.2582   19.7633  -11.9334 C   0  0  0  0  0  0  0  0  0  0  0  0
    3.9378   18.1993  -12.8679 H   0  0  0  0  0  0  0  0  0  0  0  0
 22 23  1  0  0  0
 23  9  1  0  0  0
  9 14  2  0  0  0
  9 10  1  0  0  0
 10 11  2  0  0  0
 11  1  1  0  0  0
 11 12  1  0  0  0
  1  8  1  0  0  0
  1  2  1  0  0  0
  2  3  1  0  0  0
  3  4  1  0  0  0
  4  5  1  0  0  0
  4  7  1  0  0  0
  5  6  2  0  0  0
  5 25  1  0  0  0
 25 26  1  0  0  0
 26 27  1  0  0  0
 27 28  1  0  0  0
 27 29  1  0  0  0
 29 33  1  0  0  0
 29 30  1  0  0  0
 30 31  1  0  0  0
 31 32  1  0  0  0
 32 33  1  0  0  0
  7  8  1  0  0  0
 12 13  2  0  0  0
 13 21  1  0  0  0
 13 14  1  0  0  0
 14 15  1  0  0  0
 15 16  1  0  0  0
 16 17  1  0  0  0
 17 18  1  0  0  0
 17 21  1  0  0  0
 18 19  1  0  0  0
 18 20  2  0  0  0
 23 24  1  0  0  0
 29 34  1  0  0  0
M  CHG 1  29   1
M  END
> <minimizedAffinity>
-8.65774

$$$$
ZINC000051535254


 23 24  0  0  0  0  0  0  0  0999 V2000
   -7.7326   16.3589   -7.7271 O   0  0  0  0  0  0  0  0  0  0  0  0
   -8.7129   17.1564   -8.1937 C   0  0  0  0  0  0  0  0  0  0  0  0
   -9.8331   17.0763   -7.7307 O   0  0  0  0  0  0  0  0  0  0  0  0
   -8.4257   18.1282   -9.2685 C   0  0  0  0  0  0  0  0  0  0  0  0
   -8.9667   19.4141   -9.2141 C   0  0  0  0  0  0  0  0  0  0  0  0
   -8.6945   20.3167  -10.2213 C   0  0  0  0  0  0  0  0  0  0  0  0
   -7.8879   19.9500  -11.2837 C   0  0  0  0  0  0  0  0  0  0  0  0
   -7.3484   18.6770  -11.3440 C   0  0  0  0  0  0  0  0  0  0  0  0
   -7.6072   17.7667  -10.3407 C   0  0  0  0  0  0  0  0  0  0  0  0
   -6.4708   18.2866  -12.5052 C   0  0  0  0  0  0  0  0  0  0  0  0
   -6.9455   18.9573  -13.7264 C   0  0  0  0  0  0  0  0  0  0  0  0
   -7.3118   19.4750  -14.6689 N   0  0  0  0  0  0  0  0  0  0  0  0
   -7.8981   14.9292   -7.9198 C   0  0  0  0  0  0  0  0  0  0  0  0
   -9.0592   13.9895  -12.6862 C   0  0  0  0  0  0  0  0  0  0  0  0
   -7.7853   14.2164  -11.8696 C   0  0  0  0  0  0  0  0  0  0  0  0
   -6.6094   13.5134  -12.5516 C   0  0  0  0  0  0  0  0  0  0  0  0
   -5.3287   13.7671  -11.7532 C   0  0  0  0  0  0  0  0  0  0  0  0
   -5.0740   15.2731  -11.6614 C   0  0  0  0  0  0  0  0  0  0  0  0
   -5.4869   13.1877  -10.3440 C   0  0  0  0  0  0  0  0  0  0  0  0
   -6.6994   13.7510   -9.7345 N   0  0  0  0  0  0  0  0  0  0  0  0
   -6.6457   14.3566   -8.5317 C   0  0  0  0  0  0  0  0  0  0  0  0
   -5.5894   14.4404   -7.9417 O   0  0  0  0  0  0  0  0  0  0  0  0
   -7.9718   13.6429  -10.4614 C   0  0  0  0  0  0  0  0  0  0  0  0
 14 15  1  0  0  0
 15 23  1  0  0  0
 15 16  1  0  0  0
 16 17  1  0  0  0
 17 18  1  0  0  0
 17 19  1  0  0  0
 19 20  1  0  0  0
 20 21  1  0  0  0
 20 23  1  0  0  0
 21 22  2  0  0  0
 21 13  1  0  0  0
 13  1  1  0  0  0
  1  2  1  0  0  0
  2  3  2  0  0  0
  2  4  1  0  0  0
  4  9  1  0  0  0
  4  5  2  0  0  0
  5  6  1  0  0  0
  6  7  2  0  0  0
  7  8  1  0  0  0
  8 10  1  0  0  0
  8  9  2  0  0  0
 10 11  1  0  0  0
 11 12  3  0  0  0
M  END
> <minimizedAffinity>
-7.72259

$$$$
ZINC000031361247


 33 35  0  0  0  0  0  0  0  0999 V2000
   -7.8010   16.0532   -9.0275 C   0  0  0  0  0  0  0  0  0  0  0  0
   -7.4447   14.5932   -9.1393 C   0  0  0  0  0  0  0  0  0  0  0  0
   -6.9231   14.0231   -8.2045 O   0  0  0  0  0  0  0  0  0  0  0  0
   -7.7056   13.9212  -10.2780 N   0  0  0  0  0  0  0  0  0  0  0  0
   -8.2330   14.5107  -11.5221 C   0  0  0  0  0  0  0  0  0  0  0  0
   -7.7774   13.5438  -12.6433 C   0  0  0  0  0  0  0  0  0  0  0  0
   -7.9145   12.1666  -11.9419 C   0  0  0  0  0  0  0  0  0  0  0  0
   -7.5053   12.4798  -10.4874 C   0  0  0  0  0  0  0  0  0  0  0  0
   -6.0585   12.1167  -10.2725 C   0  0  0  0  0  0  0  0  0  0  0  0
   -5.0896   12.8035  -10.9096 N   0  0  0  0  0  0  0  0  0  0  0  0
   -5.7661   11.2065   -9.5262 O   0  0  0  0  0  0  0  0  0  0  0  0
  -12.0229    3.2004   -9.3116 H   0  0  0  0  0  0  0  0  0  0  0  0
  -12.0229    3.2004   -9.3116 H   0  0  0  0  0  0  0  0  0  0  0  0
   -9.1040   16.7278   -7.0822 C   0  0  0  0  0  0  0  0  0  0  0  0
  -10.0997   16.6939   -7.7738 O   0  0  0  0  0  0  0  0  0  0  0  0
   -7.9034   16.4242   -7.6140 N   0  0  0  0  0  0  0  0  0  0  0  0
  -10.1767   19.7422   -3.8159 H   0  0  0  0  0  0  0  0  0  0  0  0
  -10.9100   20.5017   -4.4966 C   0  0  0  0  0  0  0  0  0  0  0  0
  -10.5782   19.2120   -3.7433 C   0  0  0  0  0  0  0  0  0  0  0  0
   -8.7753   18.9782   -3.7023 S   0  0  0  0  0  0  0  0  0  0  0  0
   -8.4514   18.4174   -5.4037 C   0  0  0  0  0  0  0  0  0  0  0  0
   -9.2092   17.1093   -5.6281 C   0  0  0  0  0  0  0  0  0  0  0  0
  -10.6071   17.2136   -5.2734 N   0  0  0  0  0  0  0  0  0  0  0  0
  -11.2100   18.0442   -4.4444 C   0  0  0  0  0  0  0  0  0  0  0  0
  -12.3867   17.8448   -4.2294 O   0  0  0  0  0  0  0  0  0  0  0  0
   -9.5912   19.8850   -3.8111 H   0  0  0  0  0  0  0  0  0  0  0  0
   -6.7147   16.8962   -9.6986 C   0  0  0  0  0  0  0  0  0  0  0  0
   -7.3453   18.0959  -10.3576 C   0  0  0  0  0  0  0  0  0  0  0  0
   -7.1565   18.4893  -11.6316 C   0  0  0  0  0  0  0  0  0  0  0  0
   -7.9125   19.6157  -11.8144 N   0  0  0  0  0  0  0  0  0  0  0  0
   -8.5373   19.8716  -10.6448 C   0  0  0  0  0  0  0  0  0  0  0  0
   -8.1972   18.9557   -9.7797 N   0  0  0  0  0  0  0  0  0  0  0  0
   -2.8710   22.3000  -11.8978 H   0  0  0  0  0  0  0  0  0  0  0  0
 18 19  1  0  0  0
 19 24  1  0  0  0
 19 20  1  0  0  0
 20 21  1  0  0  0
 21 22  1  0  0  0
 22 14  1  0  0  0
 22 23  1  0  0  0
 14 15  2  0  0  0
 14 16  1  0  0  0
 16  1  1  0  0  0
  1 27  1  0  0  0
  1  2  1  0  0  0
 27 28  1  0  0  0
 28 32  1  0  0  0
 28 29  2  0  0  0
 29 30  1  0  0  0
 30 31  1  0  0  0
 31 32  2  0  0  0
  2  3  2  0  0  0
  2  4  1  0  0  0
  4  8  1  0  0  0
  4  5  1  0  0  0
  5  6  1  0  0  0
  6  7  1  0  0  0
  7  8  1  0  0  0
  8  9  1  0  0  0
  9 10  1  0  0  0
  9 11  2  0  0  0
 23 24  1  0  0  0
 24 25  2  0  0  0
 16 17  1  0  0  0
 30 33  1  0  0  0
 10 12  1  0  0  0
 10 13  1  0  0  0
 23 26  1  0  0  0
M  END
> <minimizedAffinity>
-7.79513

$$$$
ZINC000585274502


 30 32  0  0  0  0  0  0  0  0999 V2000
   -8.4372   15.4190   -6.4527 S   0  0  0  0  0  0  0  0  0  0  0  0
   -9.6502   14.7207   -6.6979 O   0  0  0  0  0  0  0  0  0  0  0  0
   -7.3782   14.8859   -5.6693 O   0  0  0  0  0  0  0  0  0  0  0  0
   -8.8869   16.9500   -5.7053 C   0  0  0  0  0  0  0  0  0  0  0  0
   -8.7335   18.1311   -6.4085 C   0  0  0  0  0  0  0  0  0  0  0  0
   -9.0867   19.3337   -5.8217 C   0  0  0  0  0  0  0  0  0  0  0  0
   -9.5954   19.3498   -4.5239 C   0  0  0  0  0  0  0  0  0  0  0  0
   -9.7469   18.1636   -3.8250 C   0  0  0  0  0  0  0  0  0  0  0  0
   -9.3972   16.9654   -4.4203 C   0  0  0  0  0  0  0  0  0  0  0  0
   -9.5613   15.6737   -3.6616 C   0  0  0  0  0  0  0  0  0  0  0  0
   -9.9481   20.5753   -3.9410 N   0  0  0  0  0  0  0  0  0  0  0  0
  -10.0893   21.6604   -4.7332 C   0  0  0  0  0  0  0  0  0  0  0  0
  -10.3638   22.7374   -4.2474 O   0  0  0  0  0  0  0  0  0  0  0  0
   -9.9039   21.5275   -6.2234 C   0  0  0  0  0  0  0  0  0  0  0  0
   -9.4085   22.8572   -6.7956 C   0  0  0  0  0  0  0  0  0  0  0  0
   -8.9438   20.5042   -6.4988 O   0  0  0  0  0  0  0  0  0  0  0  0
   -3.9845   10.4176   -3.8326 H   0  0  0  0  0  0  0  0  0  0  0  0
   -7.4569   14.7710   -8.7785 C   0  0  0  0  0  0  0  0  0  0  0  0
   -7.6297   13.6165   -8.4493 O   0  0  0  0  0  0  0  0  0  0  0  0
   -7.7908   15.7690   -7.9366 N   0  0  0  0  0  0  0  0  0  0  0  0
   -4.6853   14.3380  -12.4909 H   0  0  0  0  0  0  0  0  0  0  0  0
   -6.8686   15.0896  -10.1289 C   0  0  0  0  0  0  0  0  0  0  0  0
   -6.2789   16.5012  -10.1082 C   0  0  0  0  0  0  0  0  0  0  0  0
   -7.6869   19.1297  -11.0540 C   0  0  0  0  0  0  0  0  0  0  0  0
   -6.8748   18.1977  -11.9161 C   0  0  0  0  0  0  0  0  0  0  0  0
   -6.2656   17.0607  -11.5074 C   0  0  0  0  0  0  0  0  0  0  0  0
   -5.6218   16.4961  -12.6133 C   0  0  0  0  0  0  0  0  0  0  0  0
   -5.8367   17.2664  -13.6488 N   0  0  0  0  0  0  0  0  0  0  0  0
   -6.6298   18.3446  -13.2349 N   0  0  0  0  0  0  0  0  0  0  0  0
   -7.1021   19.4423  -14.0823 C   0  0  0  0  0  0  0  0  0  0  0  0
 24 25  1  0  0  0
 25 29  1  0  0  0
 25 26  2  0  0  0
 26 23  1  0  0  0
 26 27  1  0  0  0
 23 22  1  0  0  0
 22 18  1  0  0  0
 18 19  2  0  0  0
 18 20  1  0  0  0
 20  1  1  0  0  0
  1  2  2  0  0  0
  1  3  2  0  0  0
  1  4  1  0  0  0
  4  9  1  0  0  0
  4  5  2  0  0  0
  5  6  1  0  0  0
  6 16  1  0  0  0
  6  7  2  0  0  0
  7  8  1  0  0  0
  7 11  1  0  0  0
  8  9  2  0  0  0
  9 10  1  0  0  0
 11 12  1  0  0  0
 12 13  2  0  0  0
 12 14  1  0  0  0
 14 15  1  0  0  0
 14 16  1  0  0  0
 27 28  2  0  0  0
 28 29  1  0  0  0
 29 30  1  0  0  0
 20 21  1  0  0  0
 11 17  1  0  0  0
M  END
> <minimizedAffinity>
-8.31099

$$$$
ZINC000585282986


 32 34  0  0  0  0  0  0  0  0999 V2000
   -6.7961   14.9936   -6.1149 O   0  0  0  0  0  0  0  0  0  0  0  0
   -7.7930   15.1852   -6.7786 C   0  0  0  0  0  0  0  0  0  0  0  0
   -7.7361   15.0937   -8.1220 N   0  0  0  0  0  0  0  0  0  0  0  0
   -8.9338   15.3292   -8.9398 C   0  0  0  0  0  0  0  0  0  0  0  0
   -9.1459   14.1244   -9.8619 C   0  0  0  0  0  0  0  0  0  0  0  0
   -7.8711   13.8760  -10.6713 C   0  0  0  0  0  0  0  0  0  0  0  0
   -8.0761   12.7725  -11.5558 O   0  0  0  0  0  0  0  0  0  0  0  0
   -6.7146   13.5587   -9.7204 C   0  0  0  0  0  0  0  0  0  0  0  0
   -7.0434   12.4103   -8.9362 O   0  0  0  0  0  0  0  0  0  0  0  0
   -6.4738   14.7625   -8.7970 C   0  0  0  0  0  0  0  0  0  0  0  0
   -6.7980   14.9958   -6.1189 H   0  0  0  0  0  0  0  0  0  0  0  0
   -6.7980   14.9958   -6.1189 H   0  0  0  0  0  0  0  0  0  0  0  0
   -9.0939   15.5319   -6.1014 C   0  0  0  0  0  0  0  0  0  0  0  0
   -9.0801   16.9846   -5.7007 C   0  0  0  0  0  0  0  0  0  0  0  0
   -9.0154   17.9682   -6.6699 C   0  0  0  0  0  0  0  0  0  0  0  0
   -9.0027   19.3008   -6.3024 C   0  0  0  0  0  0  0  0  0  0  0  0
   -9.0554   19.6497   -4.9658 C   0  0  0  0  0  0  0  0  0  0  0  0
   -9.1211   18.6661   -3.9967 C   0  0  0  0  0  0  0  0  0  0  0  0
   -9.1380   17.3336   -4.3644 C   0  0  0  0  0  0  0  0  0  0  0  0
   -5.4485   13.2774  -10.5319 C   0  0  0  0  0  0  0  0  0  0  0  0
   -5.4820   14.0559  -11.7772 N   0  0  0  0  0  0  0  0  0  0  0  0
   -6.1512   10.0239  -14.1609 H   0  0  0  0  0  0  0  0  0  0  0  0
   -6.1512   10.0239  -14.1609 H   0  0  0  0  0  0  0  0  0  0  0  0
   -4.8721   15.3726  -11.5482 C   0  0  0  0  0  0  0  0  0  0  0  0
   -5.4235   16.3739  -12.5650 C   0  0  0  0  0  0  0  0  0  0  0  0
   -6.2008   17.4451  -11.8445 C   0  0  0  0  0  0  0  0  0  0  0  0
   -6.8981   18.3963  -12.5657 C   0  0  0  0  0  0  0  0  0  0  0  0
   -7.6112   19.3790  -11.9053 C   0  0  0  0  0  0  0  0  0  0  0  0
   -7.6270   19.4108  -10.5222 C   0  0  0  0  0  0  0  0  0  0  0  0
   -8.5229   20.6444   -9.6922 Cl  0  0  0  0  0  0  0  0  0  0  0  0
   -6.9289   18.4586   -9.8010 C   0  0  0  0  0  0  0  0  0  0  0  0
   -6.2208   17.4730  -10.4625 C   0  0  0  0  0  0  0  0  0  0  0  0
  1  2  2  0  0  0
  2 13  1  0  0  0
  2  3  1  0  0  0
 13 14  1  0  0  0
 14 19  1  0  0  0
 14 15  2  0  0  0
 15 16  1  0  0  0
 16 17  2  0  0  0
 17 18  1  0  0  0
 18 19  2  0  0  0
  3 10  1  0  0  0
  3  4  1  0  0  0
  4  5  1  0  0  0
  5  6  1  0  0  0
  6  7  1  0  0  0
  6  8  1  0  0  0
  8  9  1  0  0  0
  8 20  1  0  0  0
  8 10  1  0  0  0
 20 21  1  0  0  0
 21 24  1  0  0  0
 24 25  1  0  0  0
 25 26  1  0  0  0
 26 32  1  0  0  0
 26 27  2  0  0  0
 27 28  1  0  0  0
 28 29  2  0  0  0
 29 30  1  0  0  0
 29 31  1  0  0  0
 31 32  2  0  0  0
  7 11  1  0  0  0
  9 12  1  0  0  0
 21 22  1  0  0  0
 21 23  1  0  0  0
M  CHG 1  21   1
M  END
> <minimizedAffinity>
-7.93314

$$$$
ZINC000215382668


 22 23  0  0  0  0  0  0  0  0999 V2000
   -7.1178   17.2250  -11.5679 N   0  0  0  0  0  0  0  0  0  0  0  0
   -6.5962   17.2892  -10.1939 C   0  0  0  0  0  0  0  0  0  0  0  0
   -7.6513   17.9377   -9.2958 C   0  0  0  0  0  0  0  0  0  0  0  0
   -8.1052   19.1933   -9.8887 N   0  0  0  0  0  0  0  0  0  0  0  0
   -7.9056   19.4960  -11.1765 C   0  0  0  0  0  0  0  0  0  0  0  0
   -8.3330   20.5492  -11.5996 O   0  0  0  0  0  0  0  0  0  0  0  0
   -7.1753   18.5837  -12.1213 C   0  0  0  0  0  0  0  0  0  0  0  0
   -5.8311   13.6908  -13.9590 H   0  0  0  0  0  0  0  0  0  0  0  0
   -6.2299   16.3950  -12.3929 C   0  0  0  0  0  0  0  0  0  0  0  0
   -5.1423   15.7787  -11.5106 C   0  0  0  0  0  0  0  0  0  0  0  0
   -5.2225   14.2530  -11.5931 C   0  0  0  0  0  0  0  0  0  0  0  0
   -6.2750   13.8529  -12.6289 C   0  0  0  0  0  0  0  0  0  0  0  0
   -5.8716   11.8094  -10.3014 C   0  0  0  0  0  0  0  0  0  0  0  0
   -5.6844   13.5833   -9.9718 S   0  0  0  0  0  0  0  0  0  0  0  0
   -8.8062   20.1595   -9.0394 C   0  0  0  0  0  0  0  0  0  0  0  0
   -9.1017   19.5233   -7.6797 C   0  0  0  0  0  0  0  0  0  0  0  0
   -9.2962   20.6062   -6.6500 C   0  0  0  0  0  0  0  0  0  0  0  0
   -9.1675   21.9343   -7.0110 C   0  0  0  0  0  0  0  0  0  0  0  0
   -9.3459   22.9277   -6.0665 C   0  0  0  0  0  0  0  0  0  0  0  0
   -9.6536   22.5931   -4.7610 C   0  0  0  0  0  0  0  0  0  0  0  0
   -9.7832   21.2649   -4.4002 C   0  0  0  0  0  0  0  0  0  0  0  0
   -9.6090   20.2717   -5.3457 C   0  0  0  0  0  0  0  0  0  0  0  0
 13 14  1  0  0  0
 14 11  1  0  0  0
 11 12  1  0  0  0
 11 10  1  0  0  0
 10  9  1  0  0  0
  9  1  1  0  0  0
  1  7  1  0  0  0
  1  2  1  0  0  0
  2  3  1  0  0  0
  3  4  1  0  0  0
  4 15  1  0  0  0
  4  5  1  0  0  0
 15 16  1  0  0  0
 16 17  1  0  0  0
 17 22  1  0  0  0
 17 18  2  0  0  0
 18 19  1  0  0  0
 19 20  2  0  0  0
 20 21  1  0  0  0
 21 22  2  0  0  0
  5  6  2  0  0  0
  5  7  1  0  0  0
  1  8  1  0  0  0
M  CHG 1   1   1
M  END
> <minimizedAffinity>
-6.44335

$$$$
ZINC000017107637


 27 28  0  0  0  0  0  0  0  0999 V2000
   -7.3917   16.3133   -8.4024 C   0  0  0  0  0  0  0  0  0  0  0  0
   -6.0043   16.4517   -7.7397 C   0  0  0  0  0  0  0  0  0  0  0  0
   -5.4821   14.9891   -7.7597 C   0  0  0  0  0  0  0  0  0  0  0  0
   -5.9768   14.2504   -6.6411 O   0  0  0  0  0  0  0  0  0  0  0  0
   -6.0973   14.4753   -9.0857 C   0  0  0  0  0  0  0  0  0  0  0  0
   -7.3885   15.1034   -9.1690 O   0  0  0  0  0  0  0  0  0  0  0  0
   -8.0812   18.3061  -11.4322 H   0  0  0  0  0  0  0  0  0  0  0  0
   -6.6971   18.5935  -12.7182 C   0  0  0  0  0  0  0  0  0  0  0  0
   -7.3060   18.5434  -11.3405 C   0  0  0  0  0  0  0  0  0  0  0  0
   -7.0782   17.4879  -10.5299 C   0  0  0  0  0  0  0  0  0  0  0  0
   -7.6388   17.4584   -9.2820 N   0  0  0  0  0  0  0  0  0  0  0  0
   -8.4145   18.4714   -8.8552 C   0  0  0  0  0  0  0  0  0  0  0  0
   -8.9025   18.4250   -7.7424 O   0  0  0  0  0  0  0  0  0  0  0  0
   -8.6577   19.5358   -9.6423 N   0  0  0  0  0  0  0  0  0  0  0  0
   -8.1197   19.6051  -10.8768 C   0  0  0  0  0  0  0  0  0  0  0  0
   -8.3388   20.5678  -11.5896 O   0  0  0  0  0  0  0  0  0  0  0  0
   -7.3018   18.5427  -11.3432 H   0  0  0  0  0  0  0  0  0  0  0  0
   -6.2476   12.9532   -9.0466 C   0  0  0  0  0  0  0  0  0  0  0  0
   -7.3708   12.5650   -9.8402 O   0  0  0  0  0  0  0  0  0  0  0  0
   -7.2460   12.1394  -11.3879 P   0  0  0  0  0  0  0  0  0  0  0  0
   -8.0702   13.2523  -12.3440 N   0  0  0  0  0  0  0  0  0  0  0  0
   -5.6231   12.1107  -11.8327 N   0  0  0  0  0  0  0  0  0  0  0  0
   -7.8335   10.7944  -11.5785 O   0  0  0  0  0  0  0  0  0  0  0  0
  -10.8869   14.5497   -5.2913 H   0  0  0  0  0  0  0  0  0  0  0  0
  -10.8869   14.5497   -5.2913 H   0  0  0  0  0  0  0  0  0  0  0  0
  -10.8869   14.5497   -5.2913 H   0  0  0  0  0  0  0  0  0  0  0  0
  -10.8869   14.5497   -5.2913 H   0  0  0  0  0  0  0  0  0  0  0  0
  8  9  1  0  0  0
  9 15  1  0  0  0
  9 10  2  0  0  0
 10 11  1  0  0  0
 11  1  1  0  0  0
 11 12  1  0  0  0
  1  6  1  0  0  0
  1  2  1  0  0  0
  2  3  1  0  0  0
  3  4  1  0  0  0
  3  5  1  0  0  0
  5 18  1  0  0  0
  5  6  1  0  0  0
 18 19  1  0  0  0
 19 20  1  0  0  0
 20 21  1  0  0  0
 20 22  1  0  0  0
 20 23  2  0  0  0
 12 13  2  0  0  0
 12 14  1  0  0  0
 14 15  1  0  0  0
 15 16  2  0  0  0
  4  7  1  0  0  0
 21 24  1  0  0  0
 21 25  1  0  0  0
 22 26  1  0  0  0
 22 27  1  0  0  0
 14 17  1  0  0  0
M  END
> <minimizedAffinity>
-7.97468

$$$$
ZINC000069926936


 21 23  0  0  0  0  0  0  0  0999 V2000
   -5.8534   13.1628  -10.0260 C   0  0  0  0  0  0  0  0  0  0  0  0
   -6.2252   11.7045  -10.3783 C   0  0  0  0  0  0  0  0  0  0  0  0
   -7.6086   11.9610  -11.5673 S   0  0  0  0  0  0  0  0  0  0  0  0
   -6.9151   13.5320  -12.2300 C   0  0  0  0  0  0  0  0  0  0  0  0
   -6.2589   14.1164  -11.0474 N   0  0  0  0  0  0  0  0  0  0  0  0
   -6.0457   15.4411  -10.9200 C   0  0  0  0  0  0  0  0  0  0  0  0
   -5.5793   15.8841   -9.8918 O   0  0  0  0  0  0  0  0  0  0  0  0
   -6.3868   16.3719  -12.0551 C   0  0  0  0  0  0  0  0  0  0  0  0
   -7.1394   17.6181  -11.5267 C   0  0  0  0  0  0  0  0  0  0  0  0
   -6.8660   18.6742  -12.6263 C   0  0  0  0  0  0  0  0  0  0  0  0
   -5.4067   18.4096  -13.0506 C   0  0  0  0  0  0  0  0  0  0  0  0
   -5.1020   16.9457  -12.6874 C   0  0  0  0  0  0  0  0  0  0  0  0
   -5.8838   13.5168   -7.6905 O   0  0  0  0  0  0  0  0  0  0  0  0
   -6.5203   13.5323   -8.7261 C   0  0  0  0  0  0  0  0  0  0  0  0
   -7.8044   13.8810   -8.7127 N   0  0  0  0  0  0  0  0  0  0  0  0
   -8.1993   14.9337   -8.0058 C   0  0  0  0  0  0  0  0  0  0  0  0
   -9.4697   15.3667   -7.9205 N   0  0  0  0  0  0  0  0  0  0  0  0
   -9.7400   16.5326   -7.1066 C   0  0  0  0  0  0  0  0  0  0  0  0
   -8.4485   17.0659   -6.4719 C   0  0  0  0  0  0  0  0  0  0  0  0
   -7.1615   15.9264   -7.0684 S   0  0  0  0  0  0  0  0  0  0  0  0
   -5.8641   13.8599   -7.2284 H   0  0  0  0  0  0  0  0  0  0  0  0
 13 14  2  0  0  0
 14 15  1  0  0  0
 14  1  1  0  0  0
 15 16  2  0  0  0
 16 20  1  0  0  0
 16 17  1  0  0  0
 17 18  1  0  0  0
 18 19  1  0  0  0
 19 20  1  0  0  0
  1  5  1  0  0  0
  1  2  1  0  0  0
  2  3  1  0  0  0
  3  4  1  0  0  0
  4  5  1  0  0  0
  5  6  1  0  0  0
  6  7  2  0  0  0
  6  8  1  0  0  0
  8 12  1  0  0  0
  8  9  1  0  0  0
  9 10  1  0  0  0
 10 11  1  0  0  0
 11 12  1  0  0  0
 17 21  1  0  0  0
M  END
> <minimizedAffinity>
-6.76695

$$$$
ZINC000408652282


 33 35  0  0  0  0  0  0  0  0999 V2000
   -9.0072   19.6162   -5.7957 C   0  0  0  0  0  0  0  0  0  0  0  0
   -9.3227   20.6564   -6.8955 C   0  0  0  0  0  0  0  0  0  0  0  0
   -8.9302   19.9656   -8.1830 C   0  0  0  0  0  0  0  0  0  0  0  0
   -8.7557   20.5237   -9.2455 O   0  0  0  0  0  0  0  0  0  0  0  0
   -8.8026   18.6433   -7.9778 N   0  0  0  0  0  0  0  0  0  0  0  0
   -9.0909   18.2894   -6.5823 C   0  0  0  0  0  0  0  0  0  0  0  0
   -8.4402   17.7210   -8.9682 N   0  0  0  0  0  0  0  0  0  0  0  0
   -7.1591   17.3168   -9.0762 C   0  0  0  0  0  0  0  0  0  0  0  0
   -6.3381   17.6722   -8.2533 O   0  0  0  0  0  0  0  0  0  0  0  0
  -11.3745   26.0587   -0.2554 H   0  0  0  0  0  0  0  0  0  0  0  0
   -6.7522   16.4410  -10.1957 C   0  0  0  0  0  0  0  0  0  0  0  0
   -6.0909   16.9781  -11.3011 C   0  0  0  0  0  0  0  0  0  0  0  0
   -5.7139   16.1552  -12.3425 C   0  0  0  0  0  0  0  0  0  0  0  0
   -5.9900   14.8005  -12.2926 C   0  0  0  0  0  0  0  0  0  0  0  0
   -6.6454   14.2616  -11.1994 C   0  0  0  0  0  0  0  0  0  0  0  0
   -7.0226   15.0722  -10.1490 C   0  0  0  0  0  0  0  0  0  0  0  0
   -7.7234   14.4941   -8.9805 N   0  0  0  0  0  0  0  0  0  0  0  0
   -8.9313   14.3398   -9.0098 O   0  0  0  0  0  0  0  0  0  0  0  0
   -7.0923   14.1728   -7.9895 O   0  0  0  0  0  0  0  0  0  0  0  0
  -10.0408   19.6597   -4.6998 C   0  0  0  0  0  0  0  0  0  0  0  0
  -11.0556   20.2976   -4.8516 O   0  0  0  0  0  0  0  0  0  0  0  0
   -9.8339   18.9898   -3.5553 O   0  0  0  0  0  0  0  0  0  0  0  0
  -10.9880   18.3527   -2.9466 C   0  0  0  0  0  0  0  0  0  0  0  0
  -10.2579   15.9900   -2.8877 N   0  0  0  0  0  0  0  0  0  0  0  0
  -11.0768   16.9225   -3.4133 C   0  0  0  0  0  0  0  0  0  0  0  0
  -11.8852   16.6107   -4.2620 O   0  0  0  0  0  0  0  0  0  0  0  0
  -11.0685   12.8110   -4.6812 H   0  0  0  0  0  0  0  0  0  0  0  0
  -11.1825   11.1016   -3.2102 C   0  0  0  0  0  0  0  0  0  0  0  0
  -10.7488   12.5242   -3.4534 C   0  0  0  0  0  0  0  0  0  0  0  0
  -10.9231   13.5757   -2.6210 C   0  0  0  0  0  0  0  0  0  0  0  0
  -10.3401   14.6661   -3.3198 C   0  0  0  0  0  0  0  0  0  0  0  0
   -9.8957   14.1801   -4.4490 N   0  0  0  0  0  0  0  0  0  0  0  0
  -10.1097   12.9932   -4.5349 O   0  0  0  0  0  0  0  0  0  0  0  0
 28 29  1  0  0  0
 29 33  1  0  0  0
 29 30  2  0  0  0
 30 31  1  0  0  0
 31 24  1  0  0  0
 31 32  2  0  0  0
 24 25  1  0  0  0
 25 26  2  0  0  0
 25 23  1  0  0  0
 23 22  1  0  0  0
 22 20  1  0  0  0
 20 21  2  0  0  0
 20  1  1  0  0  0
  1  6  1  0  0  0
  1  2  1  0  0  0
  2  3  1  0  0  0
  3  4  2  0  0  0
  3  5  1  0  0  0
  5  7  1  0  0  0
  5  6  1  0  0  0
  7  8  1  0  0  0
  8  9  2  0  0  0
  8 11  1  0  0  0
 11 16  1  0  0  0
 11 12  2  0  0  0
 12 13  1  0  0  0
 13 14  2  0  0  0
 14 15  1  0  0  0
 15 16  2  0  0  0
 16 17  1  0  0  0
 17 18  1  0  0  0
 17 19  2  0  0  0
 32 33  1  0  0  0
 24 27  1  0  0  0
  7 10  1  0  0  0
M  CHG 1  17   1
M  CHG 1  18  -1
M  END
> <minimizedAffinity>
-8.00320

$$$$
ZINC000230204808


 24 25  0  0  0  0  0  0  0  0999 V2000
   -7.9300   18.6962   -9.2351 N   0  0  0  0  0  0  0  0  0  0  0  0
   -8.4873   19.7913   -9.7880 C   0  0  0  0  0  0  0  0  0  0  0  0
   -8.1759   19.8518  -11.0576 N   0  0  0  0  0  0  0  0  0  0  0  0
   -7.4093   18.8087  -11.3858 C   0  0  0  0  0  0  0  0  0  0  0  0
   -7.2295   18.0516  -10.2349 C   0  0  0  0  0  0  0  0  0  0  0  0
   -6.4491   16.8772  -10.2992 C   0  0  0  0  0  0  0  0  0  0  0  0
   -6.2772   16.1965   -9.3040 O   0  0  0  0  0  0  0  0  0  0  0  0
   -5.8961   16.5172  -11.4762 N   0  0  0  0  0  0  0  0  0  0  0  0
   -5.0854   15.2992  -11.5500 C   0  0  0  0  0  0  0  0  0  0  0  0
   -6.0783   17.2593  -12.5822 C   0  0  0  0  0  0  0  0  0  0  0  0
   -5.5649   16.9037  -13.6255 O   0  0  0  0  0  0  0  0  0  0  0  0
   -6.8118   18.3881  -12.5630 N   0  0  0  0  0  0  0  0  0  0  0  0
   -6.9862   19.1680  -13.7909 C   0  0  0  0  0  0  0  0  0  0  0  0
   -8.0413   18.2732   -7.8369 C   0  0  0  0  0  0  0  0  0  0  0  0
   -9.4177   17.6481   -7.6013 C   0  0  0  0  0  0  0  0  0  0  0  0
   -9.4204   16.3046   -8.0881 O   0  0  0  0  0  0  0  0  0  0  0  0
  -10.7344   17.3125   -3.6088 H   0  0  0  0  0  0  0  0  0  0  0  0
   -9.7283   17.6483   -6.1031 C   0  0  0  0  0  0  0  0  0  0  0  0
   -9.1335   18.8339   -5.4812 N   0  0  0  0  0  0  0  0  0  0  0  0
  -11.2370   19.4827   -4.7971 H   0  0  0  0  0  0  0  0  0  0  0  0
   -9.4650   21.4843   -6.5944 C   0  0  0  0  0  0  0  0  0  0  0  0
   -9.7010   21.0538   -5.2141 N   0  0  0  0  0  0  0  0  0  0  0  0
   -9.7322   22.0426   -4.1336 C   0  0  0  0  0  0  0  0  0  0  0  0
   -9.8926   19.7265   -4.9338 C   0  0  0  0  0  0  0  0  0  0  0  0
 21 22  1  0  0  0
 22 23  1  0  0  0
 22 24  2  0  0  0
 24 19  1  0  0  0
 19 18  1  0  0  0
 18 15  1  0  0  0
 15 16  1  0  0  0
 15 14  1  0  0  0
 14  1  1  0  0  0
  1  5  1  0  0  0
  1  2  1  0  0  0
  2  3  2  0  0  0
  3  4  1  0  0  0
  4 12  1  0  0  0
  4  5  2  0  0  0
  5  6  1  0  0  0
  6  7  2  0  0  0
  6  8  1  0  0  0
  8  9  1  0  0  0
  8 10  1  0  0  0
 10 11  2  0  0  0
 10 12  1  0  0  0
 12 13  1  0  0  0
 19 20  1  0  0  0
 16 17  1  0  0  0
M  CHG 1  22   1
M  END
> <minimizedAffinity>
-6.47448

$$$$
ZINC000004311736


 24 26  0  0  0  0  0  0  0  0999 V2000
   -7.8560   20.1657  -12.1894 C   0  0  0  0  0  0  0  0  0  0  0  0
   -7.8982   19.1957  -11.0369 C   0  0  0  0  0  0  0  0  0  0  0  0
   -8.4969   19.5288   -9.9030 N   0  0  0  0  0  0  0  0  0  0  0  0
   -8.5409   18.6849   -8.8825 C   0  0  0  0  0  0  0  0  0  0  0  0
   -7.9928   17.4813   -8.9520 N   0  0  0  0  0  0  0  0  0  0  0  0
   -7.3758   17.0814  -10.0595 C   0  0  0  0  0  0  0  0  0  0  0  0
   -7.3182   17.9475  -11.1534 C   0  0  0  0  0  0  0  0  0  0  0  0
   -6.8037   15.8217  -10.1295 N   0  0  0  0  0  0  0  0  0  0  0  0
   -7.8208   14.7956  -10.3996 C   0  0  0  0  0  0  0  0  0  0  0  0
   -7.1419   13.4302  -10.5284 C   0  0  0  0  0  0  0  0  0  0  0  0
   -6.4267   13.1195   -9.2836 N   0  0  0  0  0  0  0  0  0  0  0  0
   -5.7900   11.8009   -9.4012 C   0  0  0  0  0  0  0  0  0  0  0  0
   -5.3981   14.1394   -9.0403 C   0  0  0  0  0  0  0  0  0  0  0  0
   -6.0624   15.5107   -8.8992 C   0  0  0  0  0  0  0  0  0  0  0  0
   -8.0529   19.1385  -11.0820 H   0  0  0  0  0  0  0  0  0  0  0  0
   -9.1759   19.0706   -7.7149 N   0  0  0  0  0  0  0  0  0  0  0  0
   -9.1644   20.5333   -7.5672 C   0  0  0  0  0  0  0  0  0  0  0  0
   -9.9269   20.9186   -6.2967 C   0  0  0  0  0  0  0  0  0  0  0  0
   -9.3382   20.2563   -5.1741 O   0  0  0  0  0  0  0  0  0  0  0  0
   -9.3333   18.8305   -5.2843 C   0  0  0  0  0  0  0  0  0  0  0  0
   -8.5648   18.4240   -6.5445 C   0  0  0  0  0  0  0  0  0  0  0  0
   -6.6413   17.5414  -12.4056 N   0  0  0  0  0  0  0  0  0  0  0  0
   -7.2446   16.8919  -13.2409 O   0  0  0  0  0  0  0  0  0  0  0  0
   -5.4811   17.8566  -12.6005 O   0  0  0  0  0  0  0  0  0  0  0  0
  1  2  1  0  0  0
  2  7  2  0  0  0
  2  3  1  0  0  0
  3  4  2  0  0  0
  4 16  1  0  0  0
  4  5  1  0  0  0
 16 21  1  0  0  0
 16 17  1  0  0  0
 17 18  1  0  0  0
 18 19  1  0  0  0
 19 20  1  0  0  0
 20 21  1  0  0  0
  5  6  2  0  0  0
  6  8  1  0  0  0
  6  7  1  0  0  0
  8 14  1  0  0  0
  8  9  1  0  0  0
  9 10  1  0  0  0
 10 11  1  0  0  0
 11 12  1  0  0  0
 11 13  1  0  0  0
 13 14  1  0  0  0
  7 22  1  0  0  0
 22 23  1  0  0  0
 22 24  2  0  0  0
 11 15  1  0  0  0
M  CHG 1  11   1
M  CHG 1  22   1
M  CHG 1  23  -1
M  END
> <minimizedAffinity>
-6.75295

$$$$
ZINC000006143690


 24 26  0  0  0  0  0  0  0  0999 V2000
   -8.2399   15.2442   -7.4403 S   0  0  0  0  0  0  0  0  0  0  0  0
   -9.4126   14.4485   -7.3375 O   0  0  0  0  0  0  0  0  0  0  0  0
   -7.2816   15.3546   -6.3968 O   0  0  0  0  0  0  0  0  0  0  0  0
   -5.9997   13.7532  -11.0804 C   0  0  0  0  0  0  0  0  0  0  0  0
   -5.3188   13.9999   -9.9029 C   0  0  0  0  0  0  0  0  0  0  0  0
   -6.0029   14.4552   -8.7913 C   0  0  0  0  0  0  0  0  0  0  0  0
   -7.3677   14.6643   -8.8573 C   0  0  0  0  0  0  0  0  0  0  0  0
   -8.0485   14.4189  -10.0353 C   0  0  0  0  0  0  0  0  0  0  0  0
   -7.3637   13.9672  -11.1479 C   0  0  0  0  0  0  0  0  0  0  0  0
   -4.3761   12.4450  -12.1435 O   0  0  0  0  0  0  0  0  0  0  0  0
   -5.2671   13.2656  -12.2706 N   0  0  0  0  0  0  0  0  0  0  0  0
   -5.5588   13.6814  -13.3777 O   0  0  0  0  0  0  0  0  0  0  0  0
   -8.7476   16.7847   -7.7738 N   0  0  0  0  0  0  0  0  0  0  0  0
   -4.6597   15.5476   -1.7908 H   0  0  0  0  0  0  0  0  0  0  0  0
   -7.7695   17.8690   -7.8914 C   0  0  0  0  0  0  0  0  0  0  0  0
   -7.6032   18.2403   -9.3424 C   0  0  0  0  0  0  0  0  0  0  0  0
   -8.2646   19.2283   -9.9840 C   0  0  0  0  0  0  0  0  0  0  0  0
   -7.8246   19.2343  -11.2796 N   0  0  0  0  0  0  0  0  0  0  0  0
   -8.1430   20.0063  -12.3592 C   0  0  0  0  0  0  0  0  0  0  0  0
   -7.5475   19.7981  -13.5523 C   0  0  0  0  0  0  0  0  0  0  0  0
   -6.5899   18.7809  -13.6986 C   0  0  0  0  0  0  0  0  0  0  0  0
   -6.2633   18.0043  -12.6306 C   0  0  0  0  0  0  0  0  0  0  0  0
   -6.8935   18.2344  -11.3913 C   0  0  0  0  0  0  0  0  0  0  0  0
   -6.7734   17.6515  -10.2069 N   0  0  0  0  0  0  0  0  0  0  0  0
 10 11  1  0  0  0
 11 12  2  0  0  0
 11  4  1  0  0  0
  4  9  2  0  0  0
  4  5  1  0  0  0
  5  6  2  0  0  0
  6  7  1  0  0  0
  7  1  1  0  0  0
  7  8  2  0  0  0
  1  2  2  0  0  0
  1  3  2  0  0  0
  1 13  1  0  0  0
 13 15  1  0  0  0
 15 16  1  0  0  0
 16 24  1  0  0  0
 16 17  2  0  0  0
 17 18  1  0  0  0
 18 23  1  0  0  0
 18 19  1  0  0  0
 19 20  2  0  0  0
 20 21  1  0  0  0
 21 22  2  0  0  0
 22 23  1  0  0  0
 23 24  2  0  0  0
  8  9  1  0  0  0
 13 14  1  0  0  0
M  CHG 1  10  -1
M  CHG 1  11   1
M  END
> <minimizedAffinity>
-7.99485

$$$$
ZINC000035851622


 35 40  0  0  0  0  0  0  0  0999 V2000
  -10.5000   15.2347   -0.8605 C   0  0  0  0  0  0  0  0  0  0  0  0
   -9.2958   14.9972   -0.2314 C   0  0  0  0  0  0  0  0  0  0  0  0
   -8.1125   15.4307   -0.8014 C   0  0  0  0  0  0  0  0  0  0  0  0
   -8.1367   16.1047   -2.0096 C   0  0  0  0  0  0  0  0  0  0  0  0
   -9.3365   16.3425   -2.6415 C   0  0  0  0  0  0  0  0  0  0  0  0
  -10.5324   15.9084   -2.0796 C   0  0  0  0  0  0  0  0  0  0  0  0
  -11.6069   16.2670   -2.8956 N   0  0  0  0  0  0  0  0  0  0  0  0
  -11.2082   16.9315   -3.9963 C   0  0  0  0  0  0  0  0  0  0  0  0
  -11.9220   17.3676   -4.8745 O   0  0  0  0  0  0  0  0  0  0  0  0
   -9.7067   17.0261   -3.9320 C   0  0  0  0  0  0  0  0  0  0  0  0
   -9.0096   16.5071   -5.1193 C   0  0  0  0  0  0  0  0  0  0  0  0
   -9.0769   15.3789   -6.0223 C   0  0  0  0  0  0  0  0  0  0  0  0
   -9.5908   14.2994   -5.8219 O   0  0  0  0  0  0  0  0  0  0  0  0
   -8.4300   15.8023   -7.1562 N   0  0  0  0  0  0  0  0  0  0  0  0
   -8.2288   17.1534   -7.1753 C   0  0  0  0  0  0  0  0  0  0  0  0
   -7.4594   17.7703   -7.8801 O   0  0  0  0  0  0  0  0  0  0  0  0
   -9.1843   17.7056   -6.1449 C   0  0  0  0  0  0  0  0  0  0  0  0
   -8.7363   18.8099   -5.2059 C   0  0  0  0  0  0  0  0  0  0  0  0
   -9.2957   20.1834   -5.5884 C   0  0  0  0  0  0  0  0  0  0  0  0
  -10.7120   20.1586   -4.9562 C   0  0  0  0  0  0  0  0  0  0  0  0
  -10.5089   19.3236   -3.6735 C   0  0  0  0  0  0  0  0  0  0  0  0
   -9.2794   18.4574   -3.8750 N   0  0  0  0  0  0  0  0  0  0  0  0
  -11.7826   14.7537   -0.2307 H   0  0  0  0  0  0  0  0  0  0  0  0
  -11.7826   14.7537   -0.2307 H   0  0  0  0  0  0  0  0  0  0  0  0
   -8.0205   14.9414   -8.1842 C   0  0  0  0  0  0  0  0  0  0  0  0
   -8.8465   14.7225   -9.2784 C   0  0  0  0  0  0  0  0  0  0  0  0
   -8.4401   13.8741  -10.2898 C   0  0  0  0  0  0  0  0  0  0  0  0
   -7.2123   13.2428  -10.2131 C   0  0  0  0  0  0  0  0  0  0  0  0
   -6.3875   13.4589   -9.1244 C   0  0  0  0  0  0  0  0  0  0  0  0
   -6.7859   14.3106   -8.1127 C   0  0  0  0  0  0  0  0  0  0  0  0
   -6.7797   12.3343  -11.2986 N   0  0  0  0  0  0  0  0  0  0  0  0
   -7.1316   11.1682  -11.2932 O   0  0  0  0  0  0  0  0  0  0  0  0
   -6.0718   12.7526  -12.1971 O   0  0  0  0  0  0  0  0  0  0  0  0
  -12.0656   13.3209   -0.6718 C   0  0  0  0  0  0  0  0  0  0  0  0
  -11.7836   14.7586   -0.2307 C   0  0  0  0  0  0  0  0  0  0  0  0
 34 35  1  0  0  0
 35  1  1  0  0  0
  1  6  2  0  0  0
  1  2  1  0  0  0
  2  3  2  0  0  0
  3  4  1  0  0  0
  4  5  2  0  0  0
  5  6  1  0  0  0
  6  7  1  0  0  0
  7  8  1  0  0  0
  8  9  2  0  0  0
 10  8  1  0  0  0
 10  5  1  0  0  0
 10 22  1  0  0  0
 10 11  1  0  0  0
 11 17  1  0  0  0
 11 12  1  0  0  0
 12 13  2  0  0  0
 12 14  1  0  0  0
 14 25  1  0  0  0
 14 15  1  0  0  0
 25 30  1  0  0  0
 25 26  2  0  0  0
 26 27  1  0  0  0
 27 28  2  0  0  0
 28 31  1  0  0  0
 28 29  1  0  0  0
 31 32  1  0  0  0
 31 33  2  0  0  0
 29 30  2  0  0  0
 15 16  2  0  0  0
 15 17  1  0  0  0
 17 18  1  0  0  0
 18 22  1  0  0  0
 18 19  1  0  0  0
 19 20  1  0  0  0
 20 21  1  0  0  0
 21 22  1  0  0  0
  7 23  1  0  0  0
 22 24  1  0  0  0
M  CHG 1  22   1
M  CHG 1  31   1
M  CHG 1  32  -1
M  END
> <minimizedAffinity>
-8.22188

$$$$
ZINC000016021942


 32 35  0  0  0  0  0  0  0  0999 V2000
   -7.0681   13.3747  -11.1215 N   0  0  0  0  0  0  0  0  0  0  0  0
   -7.6526   13.6604   -9.9524 C   0  0  0  0  0  0  0  0  0  0  0  0
   -7.8861   12.8601   -9.0722 O   0  0  0  0  0  0  0  0  0  0  0  0
   -7.9761   15.1368   -9.8992 C   0  0  0  0  0  0  0  0  0  0  0  0
   -7.4764   15.6615  -11.2743 C   0  0  0  0  0  0  0  0  0  0  0  0
   -6.9121   14.4250  -11.9357 C   0  0  0  0  0  0  0  0  0  0  0  0
   -6.4037   14.3891  -13.0356 O   0  0  0  0  0  0  0  0  0  0  0  0
   -6.3308   16.6378  -10.9339 C   0  0  0  0  0  0  0  0  0  0  0  0
   -5.8502   16.2107   -9.5931 N   0  0  0  0  0  0  0  0  0  0  0  0
   -7.0816   15.8229   -8.8594 C   0  0  0  0  0  0  0  0  0  0  0  0
   -6.7679   14.9282   -7.6918 C   0  0  0  0  0  0  0  0  0  0  0  0
   -6.2104   13.8519   -7.7334 O   0  0  0  0  0  0  0  0  0  0  0  0
   -7.2258   15.5547   -6.5906 N   0  0  0  0  0  0  0  0  0  0  0  0
   -7.8181   16.7832   -6.8915 C   0  0  0  0  0  0  0  0  0  0  0  0
   -8.4098   17.7351   -6.0651 C   0  0  0  0  0  0  0  0  0  0  0  0
   -8.9355   18.8916   -6.6038 C   0  0  0  0  0  0  0  0  0  0  0  0
   -8.8793   19.1150   -7.9670 C   0  0  0  0  0  0  0  0  0  0  0  0
   -8.2932   18.1741   -8.7956 C   0  0  0  0  0  0  0  0  0  0  0  0
   -7.7678   17.0187   -8.2626 C   0  0  0  0  0  0  0  0  0  0  0  0
   -5.1266   11.8699   -9.5877 H   0  0  0  0  0  0  0  0  0  0  0  0
   -5.1266   11.8699   -9.5877 H   0  0  0  0  0  0  0  0  0  0  0  0
   -5.1266   11.8699   -9.5877 H   0  0  0  0  0  0  0  0  0  0  0  0
   -6.6290   12.0235  -11.4785 C   0  0  0  0  0  0  0  0  0  0  0  0
   -5.1811   11.8218  -11.0271 C   0  0  0  0  0  0  0  0  0  0  0  0
   -4.6015    9.5535  -11.5414 C   0  0  0  0  0  0  0  0  0  0  0  0
   -4.5221   10.9275  -11.9261 O   0  0  0  0  0  0  0  0  0  0  0  0
   -5.2078   16.5212  -11.9664 C   0  0  0  0  0  0  0  0  0  0  0  0
   -5.2553   17.7063  -12.8962 C   0  0  0  0  0  0  0  0  0  0  0  0
   -6.2786   17.8422  -13.7628 N   0  0  0  0  0  0  0  0  0  0  0  0
   -4.3728   18.5376  -12.8648 O   0  0  0  0  0  0  0  0  0  0  0  0
   -2.5879   12.1774  -13.2179 H   0  0  0  0  0  0  0  0  0  0  0  0
   -2.5879   12.1774  -13.2179 H   0  0  0  0  0  0  0  0  0  0  0  0
 25 26  1  0  0  0
 26 24  1  0  0  0
 24 23  1  0  0  0
 23  1  1  0  0  0
  1  6  1  0  0  0
  1  2  1  0  0  0
  2  3  2  0  0  0
  2  4  1  0  0  0
  4 10  1  0  0  0
  4  5  1  0  0  0
  5  6  1  0  0  0
  5  8  1  0  0  0
  6  7  2  0  0  0
  8 27  1  0  0  0
  8  9  1  0  0  0
 27 28  1  0  0  0
 28 29  1  0  0  0
 28 30  2  0  0  0
 10  9  1  0  0  0
 10 19  1  0  0  0
 10 11  1  0  0  0
 11 12  2  0  0  0
 11 13  1  0  0  0
 13 14  1  0  0  0
 14 19  2  0  0  0
 14 15  1  0  0  0
 15 16  2  0  0  0
 16 17  1  0  0  0
 17 18  2  0  0  0
 18 19  1  0  0  0
 29 31  1  0  0  0
 29 32  1  0  0  0
  9 20  1  0  0  0
  9 21  1  0  0  0
 13 22  1  0  0  0
M  CHG 1   9   1
M  END
> <minimizedAffinity>
-8.05620

$$$$
ZINC000040399258


 27 29  0  0  0  0  0  0  0  0999 V2000
   -6.1539   12.0242  -11.5026 C   0  0  0  0  0  0  0  0  0  0  0  0
   -5.6450   11.2931  -10.2587 C   0  0  0  0  0  0  0  0  0  0  0  0
   -6.1927   11.9564   -9.0224 C   0  0  0  0  0  0  0  0  0  0  0  0
   -6.5124   11.2782   -8.0693 O   0  0  0  0  0  0  0  0  0  0  0  0
   -6.3309   13.2920   -8.9643 N   0  0  0  0  0  0  0  0  0  0  0  0
   -6.0747   14.0823  -10.0714 C   0  0  0  0  0  0  0  0  0  0  0  0
   -5.9688   13.5072  -11.3252 C   0  0  0  0  0  0  0  0  0  0  0  0
   -5.6933   14.3232  -12.4270 C   0  0  0  0  0  0  0  0  0  0  0  0
   -5.5815   13.8442  -13.5443 O   0  0  0  0  0  0  0  0  0  0  0  0
   -5.5530   15.6517  -12.2298 N   0  0  0  0  0  0  0  0  0  0  0  0
   -5.6984   16.1741  -10.9812 C   0  0  0  0  0  0  0  0  0  0  0  0
   -5.9543   15.4082   -9.9417 N   0  0  0  0  0  0  0  0  0  0  0  0
   -7.4904   11.6397  -11.4397 H   0  0  0  0  0  0  0  0  0  0  0  0
   -7.4904   11.6397  -11.4397 H   0  0  0  0  0  0  0  0  0  0  0  0
   -8.3852   12.5534  -12.4297 N   0  0  0  0  0  0  0  0  0  0  0  0
   -7.6167   11.7209  -11.6999 C   0  0  0  0  0  0  0  0  0  0  0  0
   -8.1025   10.7274  -11.2017 O   0  0  0  0  0  0  0  0  0  0  0  0
   -7.4337   11.6889  -11.9358 H   0  0  0  0  0  0  0  0  0  0  0  0
   -7.4337   11.6889  -11.9358 H   0  0  0  0  0  0  0  0  0  0  0  0
   -5.5759   17.5278  -10.8026 N   0  0  0  0  0  0  0  0  0  0  0  0
   -5.7409   11.3281  -10.2770 H   0  0  0  0  0  0  0  0  0  0  0  0
   -6.7140   18.3092  -10.5781 C   0  0  0  0  0  0  0  0  0  0  0  0
   -7.3093   18.9906  -11.6318 C   0  0  0  0  0  0  0  0  0  0  0  0
   -8.4333   19.7609  -11.4069 C   0  0  0  0  0  0  0  0  0  0  0  0
   -8.9658   19.8547  -10.1341 C   0  0  0  0  0  0  0  0  0  0  0  0
   -8.3754   19.1774   -9.0827 C   0  0  0  0  0  0  0  0  0  0  0  0
   -7.2546   18.4008   -9.3020 C   0  0  0  0  0  0  0  0  0  0  0  0
 15 16  1  0  0  0
 16 17  2  0  0  0
 16  1  1  0  0  0
  1  7  1  0  0  0
  1  2  1  0  0  0
  2  3  1  0  0  0
  3  4  2  0  0  0
  3  5  1  0  0  0
  5  6  1  0  0  0
  6 12  1  0  0  0
  6  7  2  0  0  0
  7  8  1  0  0  0
  8  9  2  0  0  0
  8 10  1  0  0  0
 10 11  1  0  0  0
 11 20  1  0  0  0
 11 12  2  0  0  0
 20 22  1  0  0  0
 22 27  1  0  0  0
 22 23  2  0  0  0
 23 24  1  0  0  0
 24 25  2  0  0  0
 25 26  1  0  0  0
 26 27  2  0  0  0
 15 18  1  0  0  0
 15 19  1  0  0  0
  5 13  1  0  0  0
 10 14  1  0  0  0
 20 21  1  0  0  0
M  END
> <minimizedAffinity>
-8.71126

$$$$
ZINC000004018032


 26 26  0  0  0  0  0  0  0  0999 V2000
   -6.3341   13.8433   -9.3807 C   0  0  0  0  0  0  0  0  0  0  0  0
   -4.9527   14.0657   -9.0901 O   0  0  0  0  0  0  0  0  0  0  0  0
   -5.8681   11.5563   -9.9032 H   0  0  0  0  0  0  0  0  0  0  0  0
   -7.1691   14.1165   -8.1281 C   0  0  0  0  0  0  0  0  0  0  0  0
   -6.7551   15.3945   -7.5312 N   0  0  0  0  0  0  0  0  0  0  0  0
   -7.5704   15.7088   -6.3677 N   0  0  0  0  0  0  0  0  0  0  0  0
   -8.9927   15.7821   -6.7321 C   0  0  0  0  0  0  0  0  0  0  0  0
   -9.2425   17.1198   -7.9316 S   0  0  0  0  0  0  0  0  0  0  0  0
   -9.4067   14.5039   -7.3289 N   0  0  0  0  0  0  0  0  0  0  0  0
   -8.5914   14.1897   -8.4925 N   0  0  0  0  0  0  0  0  0  0  0  0
   -3.9925   14.3137   -9.2542 H   0  0  0  0  0  0  0  0  0  0  0  0
   -3.9925   14.3137   -9.2542 H   0  0  0  0  0  0  0  0  0  0  0  0
   -3.9925   14.3137   -9.2542 H   0  0  0  0  0  0  0  0  0  0  0  0
   -3.9925   14.3137   -9.2542 H   0  0  0  0  0  0  0  0  0  0  0  0
   -3.9925   14.3137   -9.2542 H   0  0  0  0  0  0  0  0  0  0  0  0
   -6.7341   11.5550   -8.9903 O   0  0  0  0  0  0  0  0  0  0  0  0
   -6.5324   12.4139   -9.8148 C   0  0  0  0  0  0  0  0  0  0  0  0
   -6.4727   12.0554  -11.2773 C   0  0  0  0  0  0  0  0  0  0  0  0
   -7.4720   11.0764  -11.5689 O   0  0  0  0  0  0  0  0  0  0  0  0
   -5.5445   12.8126   -9.5921 H   0  0  0  0  0  0  0  0  0  0  0  0
   -6.7239   13.3075  -12.1200 C   0  0  0  0  0  0  0  0  0  0  0  0
   -5.7480   13.3848  -13.1609 O   0  0  0  0  0  0  0  0  0  0  0  0
   -4.4582   11.6968  -11.5739 H   0  0  0  0  0  0  0  0  0  0  0  0
   -8.1225   13.2352  -12.7363 C   0  0  0  0  0  0  0  0  0  0  0  0
   -9.0315   14.0043  -11.9461 O   0  0  0  0  0  0  0  0  0  0  0  0
   -3.9873   13.4181  -12.8443 H   0  0  0  0  0  0  0  0  0  0  0  0
 16 17  2  0  0  0
 17  1  1  0  0  0
 17 18  1  0  0  0
  1  2  1  0  0  0
  1  4  1  0  0  0
  4 10  1  0  0  0
  4  5  1  0  0  0
  5  6  1  0  0  0
  6  7  1  0  0  0
  7  8  1  0  0  0
  7  9  1  0  0  0
  9 10  1  0  0  0
 18 19  1  0  0  0
 18 21  1  0  0  0
 21 22  1  0  0  0
 21 24  1  0  0  0
 24 25  1  0  0  0
  2  3  1  0  0  0
  5 11  1  0  0  0
  6 12  1  0  0  0
  8 13  1  0  0  0
  9 14  1  0  0  0
 10 15  1  0  0  0
 19 20  1  0  0  0
 22 23  1  0  0  0
 25 26  1  0  0  0
M  END
> <minimizedAffinity>
-5.96775

$$$$
ZINC000095359358


 23 25  0  0  0  0  0  0  0  0999 V2000
   -8.4416   17.0848   -7.6932 N   0  0  0  0  0  0  0  0  0  0  0  0
   -9.1773   15.8591   -7.3528 C   0  0  0  0  0  0  0  0  0  0  0  0
   -8.9024   14.7910   -8.4140 C   0  0  0  0  0  0  0  0  0  0  0  0
   -7.4575   14.5326   -8.4825 N   0  0  0  0  0  0  0  0  0  0  0  0
   -6.7217   15.7583   -8.8229 C   0  0  0  0  0  0  0  0  0  0  0  0
   -6.9965   16.8264   -7.7617 C   0  0  0  0  0  0  0  0  0  0  0  0
   -7.1769   13.5195   -9.3827 C   0  0  0  0  0  0  0  0  0  0  0  0
   -7.9919   13.3215  -10.4084 N   0  0  0  0  0  0  0  0  0  0  0  0
   -7.7524   12.3623  -11.2872 C   0  0  0  0  0  0  0  0  0  0  0  0
   -6.6336   11.5604  -11.1246 C   0  0  0  0  0  0  0  0  0  0  0  0
   -5.8021   11.7949  -10.0407 C   0  0  0  0  0  0  0  0  0  0  0  0
   -6.0966   12.7740   -9.2015 N   0  0  0  0  0  0  0  0  0  0  0  0
   -8.7394   18.1600   -6.7377 C   0  0  0  0  0  0  0  0  0  0  0  0
   -8.7114   19.5077   -7.4615 C   0  0  0  0  0  0  0  0  0  0  0  0
   -9.4519   19.4011   -8.7210 N   0  0  0  0  0  0  0  0  0  0  0  0
   -8.4872   19.8431  -13.5261 H   0  0  0  0  0  0  0  0  0  0  0  0
   -7.6579   19.3113  -11.7272 C   0  0  0  0  0  0  0  0  0  0  0  0
   -8.0513   20.5495  -11.6655 N   0  0  0  0  0  0  0  0  0  0  0  0
   -8.7353   20.7308  -10.5910 N   0  0  0  0  0  0  0  0  0  0  0  0
   -8.8023   19.6042   -9.9244 C   0  0  0  0  0  0  0  0  0  0  0  0
   -8.1266   18.6805  -10.6325 O   0  0  0  0  0  0  0  0  0  0  0  0
   -7.1374   19.3974  -14.1501 C   0  0  0  0  0  0  0  0  0  0  0  0
   -6.8333   18.6927  -12.8265 C   0  0  0  0  0  0  0  0  0  0  0  0
 22 23  1  0  0  0
 23 17  1  0  0  0
 17 21  1  0  0  0
 17 18  2  0  0  0
 18 19  1  0  0  0
 19 20  2  0  0  0
 20 15  1  0  0  0
 20 21  1  0  0  0
 15 14  1  0  0  0
 14 13  1  0  0  0
 13  1  1  0  0  0
  1  6  1  0  0  0
  1  2  1  0  0  0
  2  3  1  0  0  0
  3  4  1  0  0  0
  4  7  1  0  0  0
  4  5  1  0  0  0
  7 12  1  0  0  0
  7  8  2  0  0  0
  8  9  1  0  0  0
  9 10  2  0  0  0
 10 11  1  0  0  0
 11 12  2  0  0  0
  5  6  1  0  0  0
 15 16  1  0  0  0
M  END
> <minimizedAffinity>
-6.70247

$$$$
ZINC000257316784


 27 28  0  0  0  0  0  0  0  0999 V2000
   -6.9624   15.9643  -11.0066 C   0  0  0  0  0  0  0  0  0  0  0  0
   -6.1478   15.7353   -9.7093 C   0  0  0  0  0  0  0  0  0  0  0  0
   -6.8426   14.5354   -9.0331 C   0  0  0  0  0  0  0  0  0  0  0  0
   -7.5703   13.7635  -10.1478 C   0  0  0  0  0  0  0  0  0  0  0  0
   -7.2963   14.5229  -11.4647 C   0  0  0  0  0  0  0  0  0  0  0  0
   -8.4558   14.5099  -12.3000 O   0  0  0  0  0  0  0  0  0  0  0  0
   -4.5865   20.8089  -13.6407 H   0  0  0  0  0  0  0  0  0  0  0  0
   -7.8073   15.0098   -8.0378 N   0  0  0  0  0  0  0  0  0  0  0  0
   -7.4933   14.9802   -6.7275 C   0  0  0  0  0  0  0  0  0  0  0  0
   -8.3808   15.4166   -5.8119 N   0  0  0  0  0  0  0  0  0  0  0  0
   -6.4095   14.5597   -6.3714 O   0  0  0  0  0  0  0  0  0  0  0  0
   -3.0787   20.9523  -12.2476 H   0  0  0  0  0  0  0  0  0  0  0  0
   -3.0787   20.9523  -12.2476 H   0  0  0  0  0  0  0  0  0  0  0  0
   -3.0787   20.9523  -12.2476 H   0  0  0  0  0  0  0  0  0  0  0  0
   -7.0473   12.3936  -10.2350 N   0  0  0  0  0  0  0  0  0  0  0  0
   -6.2058   12.2659  -11.4323 C   0  0  0  0  0  0  0  0  0  0  0  0
   -6.2461   12.0983   -9.0396 C   0  0  0  0  0  0  0  0  0  0  0  0
  -15.0595   16.4123   -7.3843 H   0  0  0  0  0  0  0  0  0  0  0  0
   -6.1721   16.6374  -11.9887 O   0  0  0  0  0  0  0  0  0  0  0  0
   -7.8063   19.8812  -12.2489 C   0  0  0  0  0  0  0  0  0  0  0  0
   -7.7430   20.0903  -13.6190 C   0  0  0  0  0  0  0  0  0  0  0  0
   -7.1549   19.1443  -14.4371 C   0  0  0  0  0  0  0  0  0  0  0  0
   -6.6287   17.9886  -13.8932 C   0  0  0  0  0  0  0  0  0  0  0  0
   -6.6894   17.7748  -12.5232 C   0  0  0  0  0  0  0  0  0  0  0  0
   -7.2733   18.7248  -11.6999 C   0  0  0  0  0  0  0  0  0  0  0  0
   -8.3857   20.5452  -10.0409 C   0  0  0  0  0  0  0  0  0  0  0  0
   -8.3852   20.8114  -11.4449 O   0  0  0  0  0  0  0  0  0  0  0  0
 26 27  1  0  0  0
 27 20  1  0  0  0
 20 25  2  0  0  0
 20 21  1  0  0  0
 21 22  2  0  0  0
 22 23  1  0  0  0
 23 24  2  0  0  0
 24 19  1  0  0  0
 24 25  1  0  0  0
 19  1  1  0  0  0
  1  5  1  0  0  0
  1  2  1  0  0  0
  2  3  1  0  0  0
  3  8  1  0  0  0
  3  4  1  0  0  0
  8  9  1  0  0  0
  9 10  1  0  0  0
  9 11  2  0  0  0
  4 15  1  0  0  0
  4  5  1  0  0  0
 15 16  1  0  0  0
 15 17  1  0  0  0
  5  6  1  0  0  0
  8 12  1  0  0  0
 10 13  1  0  0  0
 10 14  1  0  0  0
 15 18  1  0  0  0
  6  7  1  0  0  0
M  CHG 1  15   1
M  END
> <minimizedAffinity>
-6.80475

$$$$
ZINC000030874520


 28 30  0  0  0  0  0  0  0  0999 V2000
   -8.2156   15.7229   -8.2886 C   0  0  0  0  0  0  0  0  0  0  0  0
   -9.4201   15.7368   -8.1472 O   0  0  0  0  0  0  0  0  0  0  0  0
   -7.4856   16.8060   -7.9566 N   0  0  0  0  0  0  0  0  0  0  0  0
   -6.2462    9.4595  -11.3387 H   0  0  0  0  0  0  0  0  0  0  0  0
   -8.1257   17.9872   -7.5583 C   0  0  0  0  0  0  0  0  0  0  0  0
   -8.3904   18.2160   -6.2163 C   0  0  0  0  0  0  0  0  0  0  0  0
   -9.0217   19.3822   -5.8257 C   0  0  0  0  0  0  0  0  0  0  0  0
   -9.3908   20.3220   -6.7698 C   0  0  0  0  0  0  0  0  0  0  0  0
   -9.1301   20.1008   -8.1098 C   0  0  0  0  0  0  0  0  0  0  0  0
   -8.4929   18.9375   -8.5088 C   0  0  0  0  0  0  0  0  0  0  0  0
  -10.0663   21.5687   -6.3453 N   0  0  0  0  0  0  0  0  0  0  0  0
  -11.1968   21.5255   -5.8939 O   0  0  0  0  0  0  0  0  0  0  0  0
   -9.4918   22.6378   -6.4473 O   0  0  0  0  0  0  0  0  0  0  0  0
   -8.2355   18.7188   -9.8260 O   0  0  0  0  0  0  0  0  0  0  0  0
   -8.5550   19.7753  -10.7335 C   0  0  0  0  0  0  0  0  0  0  0  0
   -7.5352   14.4944   -8.8353 C   0  0  0  0  0  0  0  0  0  0  0  0
   -6.1539   16.6047  -12.4610 C   0  0  0  0  0  0  0  0  0  0  0  0
   -6.9967   16.5776  -11.4625 N   0  0  0  0  0  0  0  0  0  0  0  0
   -7.2262   15.2296  -11.1646 N   0  0  0  0  0  0  0  0  0  0  0  0
   -6.4875   14.5030  -12.0251 C   0  0  0  0  0  0  0  0  0  0  0  0
   -5.8485   15.3550  -12.8075 N   0  0  0  0  0  0  0  0  0  0  0  0
   -6.6559   13.1463  -11.7994 N   0  0  0  0  0  0  0  0  0  0  0  0
   -7.5108   12.9250  -10.7827 C   0  0  0  0  0  0  0  0  0  0  0  0
   -7.8617   11.8496  -10.3458 O   0  0  0  0  0  0  0  0  0  0  0  0
   -7.9446   14.2919  -10.2956 C   0  0  0  0  0  0  0  0  0  0  0  0
   -5.5793   17.8126  -13.1297 H   0  0  0  0  0  0  0  0  0  0  0  0
   -6.7467   18.5510  -13.8785 C   0  0  0  0  0  0  0  0  0  0  0  0
   -5.6184   17.8501  -13.1194 C   0  0  0  0  0  0  0  0  0  0  0  0
 27 28  1  0  0  0
 28 17  1  0  0  0
 17 21  1  0  0  0
 17 18  2  0  0  0
 18 19  1  0  0  0
 19 25  1  0  0  0
 19 20  1  0  0  0
 20 21  2  0  0  0
 20 22  1  0  0  0
 22 23  1  0  0  0
 23 24  2  0  0  0
 23 25  1  0  0  0
 25 16  1  0  0  0
 16  1  1  0  0  0
  1  2  2  0  0  0
  1  3  1  0  0  0
  3  5  1  0  0  0
  5 10  1  0  0  0
  5  6  2  0  0  0
  6  7  1  0  0  0
  7  8  2  0  0  0
  8 11  1  0  0  0
  8  9  1  0  0  0
 11 12  1  0  0  0
 11 13  2  0  0  0
  9 10  2  0  0  0
 10 14  1  0  0  0
 14 15  1  0  0  0
 22 26  1  0  0  0
  3  4  1  0  0  0
M  CHG 1  11   1
M  CHG 1  12  -1
M  END
> <minimizedAffinity>
-8.48419

$$$$
ZINC000003328706


 33 36  0  0  0  0  0  0  0  0999 V2000
   -6.9280   16.9396  -11.3757 C   0  0  0  0  0  0  0  0  0  0  0  0
   -6.9974   18.2287  -11.9054 C   0  0  0  0  0  0  0  0  0  0  0  0
   -7.5407   19.2513  -11.1549 C   0  0  0  0  0  0  0  0  0  0  0  0
   -8.0155   19.0008   -9.8800 C   0  0  0  0  0  0  0  0  0  0  0  0
   -7.9491   17.7247   -9.3487 C   0  0  0  0  0  0  0  0  0  0  0  0
   -7.4141   16.6924  -10.0908 C   0  0  0  0  0  0  0  0  0  0  0  0
   -8.5566   17.4164   -7.7237 S   0  0  0  0  0  0  0  0  0  0  0  0
   -9.7829   16.7155   -7.8801 O   0  0  0  0  0  0  0  0  0  0  0  0
   -7.4608   16.9079   -6.9754 O   0  0  0  0  0  0  0  0  0  0  0  0
   -8.9382   18.8832   -7.0565 N   0  0  0  0  0  0  0  0  0  0  0  0
   -9.2090   20.1063   -7.8168 C   0  0  0  0  0  0  0  0  0  0  0  0
   -9.5089   21.1804   -6.7585 C   0  0  0  0  0  0  0  0  0  0  0  0
   -9.3802   20.4574   -5.4366 C   0  0  0  0  0  0  0  0  0  0  0  0
   -9.5358   20.9061   -4.1395 C   0  0  0  0  0  0  0  0  0  0  0  0
   -9.3612   20.0370   -3.0783 C   0  0  0  0  0  0  0  0  0  0  0  0
   -9.0306   18.7161   -3.3183 C   0  0  0  0  0  0  0  0  0  0  0  0
   -8.8747   18.2633   -4.6112 C   0  0  0  0  0  0  0  0  0  0  0  0
   -9.0547   19.1334   -5.6883 C   0  0  0  0  0  0  0  0  0  0  0  0
   -6.3473   15.8383  -12.1749 C   0  0  0  0  0  0  0  0  0  0  0  0
   -5.5253   16.0812  -13.0393 O   0  0  0  0  0  0  0  0  0  0  0  0
   -5.5172   11.3623  -10.2569 C   0  0  0  0  0  0  0  0  0  0  0  0
   -6.3681   12.2925  -11.0032 N   0  0  0  0  0  0  0  0  0  0  0  0
   -7.5538   11.8702  -11.4695 C   0  0  0  0  0  0  0  0  0  0  0  0
   -7.8907   10.7214  -11.2590 O   0  0  0  0  0  0  0  0  0  0  0  0
   -8.3814   12.6715  -12.1600 N   0  0  0  0  0  0  0  0  0  0  0  0
   -8.0484   13.9531  -12.4168 C   0  0  0  0  0  0  0  0  0  0  0  0
   -8.8010   14.6770  -13.0425 O   0  0  0  0  0  0  0  0  0  0  0  0
   -6.7610   14.4572  -11.9263 C   0  0  0  0  0  0  0  0  0  0  0  0
   -5.9414   13.5747  -11.2063 C   0  0  0  0  0  0  0  0  0  0  0  0
   -4.7357   13.9866  -10.7260 N   0  0  0  0  0  0  0  0  0  0  0  0
   -7.2983   12.6807  -10.4183 H   0  0  0  0  0  0  0  0  0  0  0  0
   -7.2983   12.6807  -10.4183 H   0  0  0  0  0  0  0  0  0  0  0  0
   -7.2983   12.6807  -10.4183 H   0  0  0  0  0  0  0  0  0  0  0  0
 21 22  1  0  0  0
 22 29  1  0  0  0
 22 23  1  0  0  0
 23 24  2  0  0  0
 23 25  1  0  0  0
 25 26  1  0  0  0
 26 27  2  0  0  0
 26 28  1  0  0  0
 28 19  1  0  0  0
 28 29  2  0  0  0
 19 20  2  0  0  0
 19  1  1  0  0  0
  1  6  1  0  0  0
  1  2  2  0  0  0
  2  3  1  0  0  0
  3  4  2  0  0  0
  4  5  1  0  0  0
  5  7  1  0  0  0
  5  6  2  0  0  0
  7  8  2  0  0  0
  7  9  2  0  0  0
  7 10  1  0  0  0
 10 18  1  0  0  0
 10 11  1  0  0  0
 11 12  1  0  0  0
 12 13  1  0  0  0
 13 18  2  0  0  0
 13 14  1  0  0  0
 14 15  2  0  0  0
 15 16  1  0  0  0
 16 17  2  0  0  0
 17 18  1  0  0  0
 29 30  1  0  0  0
 25 31  1  0  0  0
 30 32  1  0  0  0
 30 33  1  0  0  0
M  END
> <minimizedAffinity>
-9.91545

$$$$
ZINC000008298134


 24 26  0  0  0  0  0  0  0  0999 V2000
   -7.8969   16.6572   -9.2383 C   0  0  0  0  0  0  0  0  0  0  0  0
   -8.2572   15.1942   -8.9642 C   0  0  0  0  0  0  0  0  0  0  0  0
   -7.9062   14.8574   -7.5780 N   0  0  0  0  0  0  0  0  0  0  0  0
   -6.4612   14.9965   -7.3506 C   0  0  0  0  0  0  0  0  0  0  0  0
   -6.0493   16.4534   -7.5795 C   0  0  0  0  0  0  0  0  0  0  0  0
   -7.2936   17.2678   -7.9671 C   0  0  0  0  0  0  0  0  0  0  0  0
   -8.3149   17.1735   -6.8265 C   0  0  0  0  0  0  0  0  0  0  0  0
   -8.6695   15.6765   -6.6262 C   0  0  0  0  0  0  0  0  0  0  0  0
   -6.7422   17.8706  -11.0584 N   0  0  0  0  0  0  0  0  0  0  0  0
   -7.5567   19.0430  -10.7295 C   0  0  0  0  0  0  0  0  0  0  0  0
   -6.8918   16.7283  -10.3589 C   0  0  0  0  0  0  0  0  0  0  0  0
   -6.2175   15.7578  -10.6312 O   0  0  0  0  0  0  0  0  0  0  0  0
   -5.7650   17.9397  -12.1478 C   0  0  0  0  0  0  0  0  0  0  0  0
   -6.8535   18.8241  -14.1464 C   0  0  0  0  0  0  0  0  0  0  0  0
   -6.4717   17.7704  -13.4679 C   0  0  0  0  0  0  0  0  0  0  0  0
   -8.3046   15.2514   -5.2024 C   0  0  0  0  0  0  0  0  0  0  0  0
   -9.4840   15.3664   -4.3410 N   0  0  0  0  0  0  0  0  0  0  0  0
   -9.8565   16.4683   -3.6497 C   0  0  0  0  0  0  0  0  0  0  0  0
  -10.9929   16.1358   -2.9940 C   0  0  0  0  0  0  0  0  0  0  0  0
  -11.2565   14.8634   -3.3120 N   0  0  0  0  0  0  0  0  0  0  0  0
  -10.3469   14.4382   -4.1160 N   0  0  0  0  0  0  0  0  0  0  0  0
  -11.8023   17.0242   -2.0848 C   0  0  0  0  0  0  0  0  0  0  0  0
  -11.5860   18.3917   -2.4391 O   0  0  0  0  0  0  0  0  0  0  0  0
  -11.0216   19.1815   -1.3904 C   0  0  0  0  0  0  0  0  0  0  0  0
 14 15  2  0  0  0
 15 13  1  0  0  0
 13  9  1  0  0  0
  9 10  1  0  0  0
  9 11  1  0  0  0
 11 12  2  0  0  0
 11  1  1  0  0  0
  1  6  1  0  0  0
  1  2  1  0  0  0
  3  2  1  0  0  0
  3  8  1  0  0  0
  3  4  1  0  0  0
  4  5  1  0  0  0
  5  6  1  0  0  0
  6  7  1  0  0  0
  7  8  1  0  0  0
  8 16  1  0  0  0
 16 17  1  0  0  0
 17 21  1  0  0  0
 17 18  1  0  0  0
 18 19  2  0  0  0
 19 22  1  0  0  0
 19 20  1  0  0  0
 22 23  1  0  0  0
 23 24  1  0  0  0
 20 21  2  0  0  0
M  END
> <minimizedAffinity>
-6.33480

$$$$
ZINC000017917090


 29 31  0  0  0  0  0  0  0  0999 V2000
   -7.8236   16.4729   -7.4012 C   0  0  0  0  0  0  0  0  0  0  0  0
   -8.6516   15.5005   -7.6139 N   0  0  0  0  0  0  0  0  0  0  0  0
  -10.0426   15.7055   -7.4454 O   0  0  0  0  0  0  0  0  0  0  0  0
  -10.5588   17.1105   -7.0015 H   0  0  0  0  0  0  0  0  0  0  0  0
   -8.4540   18.4309   -9.3547 O   0  0  0  0  0  0  0  0  0  0  0  0
   -8.6256   18.7619   -8.1961 C   0  0  0  0  0  0  0  0  0  0  0  0
   -9.0922   19.9942   -7.8979 N   0  0  0  0  0  0  0  0  0  0  0  0
   -9.2768   20.3395   -6.5735 C   0  0  0  0  0  0  0  0  0  0  0  0
   -9.7563   21.6013   -6.2396 C   0  0  0  0  0  0  0  0  0  0  0  0
   -9.9384   21.9385   -4.9143 C   0  0  0  0  0  0  0  0  0  0  0  0
  -10.5372   23.5148   -4.5010 Cl  0  0  0  0  0  0  0  0  0  0  0  0
   -9.6464   21.0256   -3.9069 C   0  0  0  0  0  0  0  0  0  0  0  0
   -9.1752   19.7827   -4.2104 C   0  0  0  0  0  0  0  0  0  0  0  0
   -8.9803   19.4137   -5.5524 C   0  0  0  0  0  0  0  0  0  0  0  0
   -8.5167   18.1894   -5.8511 N   0  0  0  0  0  0  0  0  0  0  0  0
   -8.3331   17.8213   -7.0988 C   0  0  0  0  0  0  0  0  0  0  0  0
  -10.5588   17.2200   -7.4900 H   0  0  0  0  0  0  0  0  0  0  0  0
   -6.3384   16.2250   -7.4630 C   0  0  0  0  0  0  0  0  0  0  0  0
   -5.6466   17.4753   -7.4705 O   0  0  0  0  0  0  0  0  0  0  0  0
  -10.6019   16.8426   -6.9633 H   0  0  0  0  0  0  0  0  0  0  0  0
   -6.0085   15.4608   -8.7194 C   0  0  0  0  0  0  0  0  0  0  0  0
   -6.0179   16.1048   -9.9426 C   0  0  0  0  0  0  0  0  0  0  0  0
   -5.7154   15.4040  -11.0950 C   0  0  0  0  0  0  0  0  0  0  0  0
   -5.4030   14.0592  -11.0242 C   0  0  0  0  0  0  0  0  0  0  0  0
   -5.3923   13.4155   -9.8009 C   0  0  0  0  0  0  0  0  0  0  0  0
   -5.6911   14.1173   -8.6480 C   0  0  0  0  0  0  0  0  0  0  0  0
   -5.0796   13.3087  -12.2584 N   0  0  0  0  0  0  0  0  0  0  0  0
   -5.5792   13.6371  -13.3195 O   0  0  0  0  0  0  0  0  0  0  0  0
   -4.3137   12.3627  -12.2127 O   0  0  0  0  0  0  0  0  0  0  0  0
  5  6  2  0  0  0
  6 16  1  0  0  0
  6  7  1  0  0  0
  7  8  1  0  0  0
  8 14  2  0  0  0
  8  9  1  0  0  0
  9 10  2  0  0  0
 10 11  1  0  0  0
 10 12  1  0  0  0
 12 13  2  0  0  0
 13 14  1  0  0  0
 14 15  1  0  0  0
 15 16  2  0  0  0
 16  1  1  0  0  0
  1  2  2  0  0  0
  1 18  1  0  0  0
  2  3  1  0  0  0
 18 19  1  0  0  0
 18 21  1  0  0  0
 21 26  1  0  0  0
 21 22  2  0  0  0
 22 23  1  0  0  0
 23 24  2  0  0  0
 24 27  1  0  0  0
 24 25  1  0  0  0
 27 28  1  0  0  0
 27 29  2  0  0  0
 25 26  2  0  0  0
  7 17  1  0  0  0
  3  4  1  0  0  0
 19 20  1  0  0  0
M  CHG 1  27   1
M  CHG 1  28  -1
M  END
> <minimizedAffinity>
-8.14679

$$$$
ZINC000067911837


 29 30  0  0  0  0  0  0  0  0999 V2000
   -6.7162   14.5729  -10.9760 N   0  0  0  0  0  0  0  0  0  0  0  0
   -6.5273   13.7331   -9.9389 C   0  0  0  0  0  0  0  0  0  0  0  0
   -5.9190   14.1071   -8.9587 O   0  0  0  0  0  0  0  0  0  0  0  0
   -6.2139   15.9465  -10.8860 H   0  0  0  0  0  0  0  0  0  0  0  0
   -7.0722   12.3292   -9.9974 C   0  0  0  0  0  0  0  0  0  0  0  0
   -6.6084   11.5748   -8.8253 N   0  0  0  0  0  0  0  0  0  0  0  0
   -6.5957   16.0808  -10.5537 H   0  0  0  0  0  0  0  0  0  0  0  0
   -6.5957   16.0808  -10.5537 H   0  0  0  0  0  0  0  0  0  0  0  0
   -6.5789   11.6435  -11.2731 C   0  0  0  0  0  0  0  0  0  0  0  0
   -5.0666   11.4292  -11.1848 C   0  0  0  0  0  0  0  0  0  0  0  0
   -4.4153   12.2117  -12.1877 O   0  0  0  0  0  0  0  0  0  0  0  0
  -10.5540   13.1180   -9.7790 H   0  0  0  0  0  0  0  0  0  0  0  0
   -4.7522    9.9715  -11.4022 C   0  0  0  0  0  0  0  0  0  0  0  0
   -4.0393    9.6337  -12.3318 O   0  0  0  0  0  0  0  0  0  0  0  0
   -5.2107    9.1300  -10.6485 O   0  0  0  0  0  0  0  0  0  0  0  0
  -10.6307   13.1642  -10.1995 H   0  0  0  0  0  0  0  0  0  0  0  0
   -4.9850   16.0579  -11.8586 C   0  0  0  0  0  0  0  0  0  0  0  0
   -6.1866   15.9377  -10.9192 C   0  0  0  0  0  0  0  0  0  0  0  0
   -7.2728   16.9247  -11.3514 C   0  0  0  0  0  0  0  0  0  0  0  0
   -6.8412   17.6268  -12.5188 O   0  0  0  0  0  0  0  0  0  0  0  0
   -6.2169   15.9129  -10.8994 H   0  0  0  0  0  0  0  0  0  0  0  0
   -7.5324   17.9239  -10.2223 C   0  0  0  0  0  0  0  0  0  0  0  0
   -6.5595   19.0919  -10.0166 C   0  0  0  0  0  0  0  0  0  0  0  0
   -7.9552   19.3654  -10.5694 C   0  0  0  0  0  0  0  0  0  0  0  0
   -8.9973   19.9992   -9.6444 C   0  0  0  0  0  0  0  0  0  0  0  0
   -8.7213   19.6437   -8.2083 C   0  0  0  0  0  0  0  0  0  0  0  0
   -8.3522   18.4053   -7.8621 C   0  0  0  0  0  0  0  0  0  0  0  0
   -8.2057   17.3798   -8.9664 C   0  0  0  0  0  0  0  0  0  0  0  0
   -8.5703   16.2294   -8.8405 O   0  0  0  0  0  0  0  0  0  0  0  0
 17 18  1  0  0  0
 18  1  1  0  0  0
 18 19  1  0  0  0
  1  2  1  0  0  0
  2  3  2  0  0  0
  2  5  1  0  0  0
  5  6  1  0  0  0
  5  9  1  0  0  0
  9 10  1  0  0  0
 10 11  1  0  0  0
 10 13  1  0  0  0
 13 14  2  0  0  0
 13 15  1  0  0  0
 19 20  1  0  0  0
 19 22  1  0  0  0
 22 24  1  0  0  0
 22 28  1  0  0  0
 22 23  1  0  0  0
 23 24  1  0  0  0
 24 25  1  0  0  0
 25 26  1  0  0  0
 26 27  2  0  0  0
 27 28  1  0  0  0
 28 29  2  0  0  0
  1  4  1  0  0  0
  6  7  1  0  0  0
  6  8  1  0  0  0
 11 12  1  0  0  0
 15 16  1  0  0  0
 20 21  1  0  0  0
M  END
> <minimizedAffinity>
-7.57144

$$$$
ZINC000408843093


 28 30  0  0  0  0  0  0  0  0999 V2000
   -5.7884   16.1971  -11.1091 N   0  0  0  0  0  0  0  0  0  0  0  0
   -6.1211   16.3822   -9.8021 C   0  0  0  0  0  0  0  0  0  0  0  0
   -5.7468   15.4576   -8.6724 C   0  0  0  0  0  0  0  0  0  0  0  0
   -6.8424   17.5295   -9.6698 C   0  0  0  0  0  0  0  0  0  0  0  0
   -6.9661   18.1057  -11.0209 C   0  0  0  0  0  0  0  0  0  0  0  0
   -7.5764   19.2486  -11.5322 C   0  0  0  0  0  0  0  0  0  0  0  0
   -7.5093   19.5114  -12.8829 C   0  0  0  0  0  0  0  0  0  0  0  0
   -6.8380   18.6441  -13.7326 C   0  0  0  0  0  0  0  0  0  0  0  0
   -6.2296   17.5098  -13.2407 C   0  0  0  0  0  0  0  0  0  0  0  0
   -6.2813   17.2294  -11.8792 C   0  0  0  0  0  0  0  0  0  0  0  0
   -7.3900   18.0850   -8.4236 C   0  0  0  0  0  0  0  0  0  0  0  0
   -8.6774   18.1757   -8.2626 N   0  0  0  0  0  0  0  0  0  0  0  0
   -9.1983   18.8027   -7.1233 N   0  0  0  0  0  0  0  0  0  0  0  0
   -9.3240   20.1455   -7.0910 C   0  0  0  0  0  0  0  0  0  0  0  0
   -8.9874   20.8192   -8.0478 O   0  0  0  0  0  0  0  0  0  0  0  0
   -9.8708   20.7828   -5.8915 C   0  0  0  0  0  0  0  0  0  0  0  0
  -10.0242   22.2805   -5.8245 C   0  0  0  0  0  0  0  0  0  0  0  0
  -10.2236   20.0357   -4.8814 N   0  0  0  0  0  0  0  0  0  0  0  0
  -10.0758   18.6456   -4.9575 N   0  0  0  0  0  0  0  0  0  0  0  0
   -9.5784   18.0644   -6.0636 C   0  0  0  0  0  0  0  0  0  0  0  0
   -9.4126   16.3613   -6.1195 S   0  0  0  0  0  0  0  0  0  0  0  0
   -2.8973   18.5597  -14.8733 H   0  0  0  0  0  0  0  0  0  0  0  0
   -5.0122   15.0660  -11.6232 C   0  0  0  0  0  0  0  0  0  0  0  0
   -5.9429   14.0652  -12.2581 C   0  0  0  0  0  0  0  0  0  0  0  0
   -5.6960   13.6214  -13.3545 O   0  0  0  0  0  0  0  0  0  0  0  0
   -7.0463   13.6669  -11.6057 O   0  0  0  0  0  0  0  0  0  0  0  0
   -9.1822   13.8028  -12.7674 C   0  0  0  0  0  0  0  0  0  0  0  0
   -8.0176   12.8971  -12.3622 C   0  0  0  0  0  0  0  0  0  0  0  0
 27 28  1  0  0  0
 28 26  1  0  0  0
 26 24  1  0  0  0
 24 25  2  0  0  0
 24 23  1  0  0  0
 23  1  1  0  0  0
  1 10  1  0  0  0
  1  2  1  0  0  0
  2  3  1  0  0  0
  2  4  2  0  0  0
  4 11  1  0  0  0
  4  5  1  0  0  0
 11 12  2  0  0  0
 12 13  1  0  0  0
 13 20  1  0  0  0
 13 14  1  0  0  0
 14 15  2  0  0  0
 14 16  1  0  0  0
 16 17  1  0  0  0
 16 18  2  0  0  0
 18 19  1  0  0  0
 19 20  1  0  0  0
 20 21  2  0  0  0
  5 10  2  0  0  0
  5  6  1  0  0  0
  6  7  2  0  0  0
  7  8  1  0  0  0
  8  9  2  0  0  0
  9 10  1  0  0  0
 19 22  1  0  0  0
M  END
> <minimizedAffinity>
-8.64180

$$$$
ZINC000040398985


 32 35  0  0  0  0  0  0  0  0999 V2000
   -7.4370   14.7536  -10.3167 N   0  0  0  0  0  0  0  0  0  0  0  0
   -7.0892   15.7850  -11.1403 C   0  0  0  0  0  0  0  0  0  0  0  0
   -7.2923   17.0720  -10.8132 C   0  0  0  0  0  0  0  0  0  0  0  0
   -7.9102   17.4020   -9.5273 C   0  0  0  0  0  0  0  0  0  0  0  0
   -8.1267   18.6614   -9.1707 N   0  0  0  0  0  0  0  0  0  0  0  0
   -8.6870   18.9592   -8.0053 C   0  0  0  0  0  0  0  0  0  0  0  0
   -9.0737   17.9357   -7.1008 C   0  0  0  0  0  0  0  0  0  0  0  0
   -8.8625   16.6001   -7.4367 C   0  0  0  0  0  0  0  0  0  0  0  0
   -8.2730   16.3298   -8.6695 C   0  0  0  0  0  0  0  0  0  0  0  0
   -8.0154   14.9575   -9.1164 C   0  0  0  0  0  0  0  0  0  0  0  0
   -8.3161   14.0129   -8.4094 O   0  0  0  0  0  0  0  0  0  0  0  0
   -9.6890   18.3225   -5.8272 C   0  0  0  0  0  0  0  0  0  0  0  0
  -10.0332   17.4724   -5.0262 O   0  0  0  0  0  0  0  0  0  0  0  0
   -9.8687   19.6299   -5.5534 N   0  0  0  0  0  0  0  0  0  0  0  0
   -9.4969   20.6117   -6.4230 C   0  0  0  0  0  0  0  0  0  0  0  0
   -8.9269   20.3488   -7.6107 C   0  0  0  0  0  0  0  0  0  0  0  0
   -6.1815   11.5466  -11.0100 C   0  0  0  0  0  0  0  0  0  0  0  0
   -6.0868   12.7346  -10.4704 N   0  0  0  0  0  0  0  0  0  0  0  0
   -7.1902   13.4408  -10.7347 C   0  0  0  0  0  0  0  0  0  0  0  0
   -8.0036   12.7017  -11.4508 N   0  0  0  0  0  0  0  0  0  0  0  0
   -7.3634   11.4669  -11.6450 N   0  0  0  0  0  0  0  0  0  0  0  0
   -5.6025    9.3059  -11.6555 H   0  0  0  0  0  0  0  0  0  0  0  0
   -5.1423   10.4577  -10.9374 C   0  0  0  0  0  0  0  0  0  0  0  0
   -4.2982    8.5622  -12.1374 C   0  0  0  0  0  0  0  0  0  0  0  0
   -5.1521    9.7080  -12.1539 O   0  0  0  0  0  0  0  0  0  0  0  0
  -10.4837   20.0084   -4.2788 C   0  0  0  0  0  0  0  0  0  0  0  0
   -9.4384   20.6842   -3.3890 C   0  0  0  0  0  0  0  0  0  0  0  0
   -9.2859   19.8916   -2.0891 C   0  0  0  0  0  0  0  0  0  0  0  0
   -8.1820   18.9323   -2.2272 N   0  0  0  0  0  0  0  0  0  0  0  0
   -7.0542   19.3596   -1.3883 C   0  0  0  0  0  0  0  0  0  0  0  0
   -8.6335   17.6014   -1.7997 C   0  0  0  0  0  0  0  0  0  0  0  0
  -23.5151   13.2139   -5.1350 H   0  0  0  0  0  0  0  0  0  0  0  0
 24 25  1  0  0  0
 25 23  1  0  0  0
 23 17  1  0  0  0
 17 21  1  0  0  0
 17 18  2  0  0  0
 18 19  1  0  0  0
 19  1  1  0  0  0
 19 20  2  0  0  0
  1 10  1  0  0  0
  1  2  1  0  0  0
  2  3  2  0  0  0
  3  4  1  0  0  0
  4  9  2  0  0  0
  4  5  1  0  0  0
  5  6  2  0  0  0
  6 16  1  0  0  0
  6  7  1  0  0  0
  7  8  2  0  0  0
  7 12  1  0  0  0
  8  9  1  0  0  0
  9 10  1  0  0  0
 10 11  2  0  0  0
 12 13  2  0  0  0
 12 14  1  0  0  0
 14 26  1  0  0  0
 14 15  1  0  0  0
 26 27  1  0  0  0
 27 28  1  0  0  0
 28 29  1  0  0  0
 29 30  1  0  0  0
 29 31  1  0  0  0
 15 16  2  0  0  0
 20 21  1  0  0  0
 29 32  1  0  0  0
 21 22  1  0  0  0
M  CHG 1  29   1
M  END
> <minimizedAffinity>
-7.45280

$$$$
ZINC000253387604


 33 35  0  0  0  0  0  0  0  0999 V2000
   -8.5540   15.5447   -7.2982 C   0  0  0  0  0  0  0  0  0  0  0  0
   -8.7527   14.3352   -8.2267 C   0  0  0  0  0  0  0  0  0  0  0  0
   -9.3968   14.7507   -9.5255 C   0  0  0  0  0  0  0  0  0  0  0  0
   -9.0434   14.1311  -10.6488 C   0  0  0  0  0  0  0  0  0  0  0  0
   -8.0405   13.0459  -10.6439 C   0  0  0  0  0  0  0  0  0  0  0  0
   -7.1979   12.9194   -9.5629 C   0  0  0  0  0  0  0  0  0  0  0  0
   -7.4108   13.8041   -8.5396 N   0  0  0  0  0  0  0  0  0  0  0  0
   -6.4323   14.4540   -7.6646 C   0  0  0  0  0  0  0  0  0  0  0  0
   -7.0407   15.8647   -7.4235 C   0  0  0  0  0  0  0  0  0  0  0  0
   -6.7850   16.7704   -8.6005 C   0  0  0  0  0  0  0  0  0  0  0  0
   -6.6855   18.1361   -8.4126 C   0  0  0  0  0  0  0  0  0  0  0  0
   -6.4504   18.9677   -9.4919 C   0  0  0  0  0  0  0  0  0  0  0  0
   -6.3152   18.4338  -10.7594 C   0  0  0  0  0  0  0  0  0  0  0  0
   -6.4147   17.0666  -10.9481 C   0  0  0  0  0  0  0  0  0  0  0  0
   -6.2443   16.3951  -12.5399 Cl  0  0  0  0  0  0  0  0  0  0  0  0
   -6.6442   16.2347   -9.8670 C   0  0  0  0  0  0  0  0  0  0  0  0
   -7.9439   12.1173  -11.7750 C   0  0  0  0  0  0  0  0  0  0  0  0
   -8.3700   12.4962  -12.9962 N   0  0  0  0  0  0  0  0  0  0  0  0
   -7.4789   11.0045  -11.6109 O   0  0  0  0  0  0  0  0  0  0  0  0
   -9.5827   19.6234   -7.5647 H   0  0  0  0  0  0  0  0  0  0  0  0
   -9.5827   19.6234   -7.5647 H   0  0  0  0  0  0  0  0  0  0  0  0
   -5.1012   14.5805   -8.3597 C   0  0  0  0  0  0  0  0  0  0  0  0
   -4.9244   14.0379   -9.5806 N   0  0  0  0  0  0  0  0  0  0  0  0
   -4.1892   15.1706   -7.8204 O   0  0  0  0  0  0  0  0  0  0  0  0
   -7.8682   10.2988   -3.1349 H   0  0  0  0  0  0  0  0  0  0  0  0
   -7.8682   10.2988   -3.1349 H   0  0  0  0  0  0  0  0  0  0  0  0
   -9.3824   16.7131   -7.7669 C   0  0  0  0  0  0  0  0  0  0  0  0
   -9.4902   16.9420   -8.9483 O   0  0  0  0  0  0  0  0  0  0  0  0
  -10.0003   17.4996   -6.8718 O   0  0  0  0  0  0  0  0  0  0  0  0
   -8.7778   18.8393   -5.2466 C   0  0  0  0  0  0  0  0  0  0  0  0
   -9.4210   18.8098   -6.6345 C   0  0  0  0  0  0  0  0  0  0  0  0
   -8.8950   15.1953   -5.9096 C   0  0  0  0  0  0  0  0  0  0  0  0
   -9.1581   14.9256   -4.8378 N   0  0  0  0  0  0  0  0  0  0  0  0
 30 31  1  0  0  0
 31 29  1  0  0  0
 29 27  1  0  0  0
 27 28  2  0  0  0
  1 27  1  0  0  0
  1  9  1  0  0  0
  1 32  1  0  0  0
  1  2  1  0  0  0
 32 33  3  0  0  0
  2  7  1  0  0  0
  2  3  1  0  0  0
  3  4  2  0  0  0
  4  5  1  0  0  0
  5 17  1  0  0  0
  5  6  2  0  0  0
 17 18  1  0  0  0
 17 19  2  0  0  0
  6  7  1  0  0  0
  7  8  1  0  0  0
  8 22  1  0  0  0
  8  9  1  0  0  0
 22 23  1  0  0  0
 22 24  2  0  0  0
  9 10  1  0  0  0
 10 16  1  0  0  0
 10 11  2  0  0  0
 11 12  1  0  0  0
 12 13  2  0  0  0
 13 14  1  0  0  0
 14 15  1  0  0  0
 14 16  2  0  0  0
 18 20  1  0  0  0
 18 21  1  0  0  0
 23 25  1  0  0  0
 23 26  1  0  0  0
M  END
> <minimizedAffinity>
-5.55237

$$$$
ZINC000103563314


 32 37  0  0  0  0  0  0  0  0999 V2000
   -8.7488   13.9670  -11.0457 O   0  0  0  0  0  0  0  0  0  0  0  0
   -7.9687   14.8138  -11.4275 C   0  0  0  0  0  0  0  0  0  0  0  0
   -7.9906   15.4464  -12.6161 N   0  0  0  0  0  0  0  0  0  0  0  0
   -6.9445   16.3624  -12.7433 C   0  0  0  0  0  0  0  0  0  0  0  0
   -6.5974   17.2083  -13.7939 C   0  0  0  0  0  0  0  0  0  0  0  0
   -5.5002   18.0376  -13.6832 C   0  0  0  0  0  0  0  0  0  0  0  0
   -4.7370   18.0366  -12.5302 C   0  0  0  0  0  0  0  0  0  0  0  0
   -5.0748   17.1983  -11.4817 C   0  0  0  0  0  0  0  0  0  0  0  0
   -6.1678   16.3686  -11.5896 C   0  0  0  0  0  0  0  0  0  0  0  0
   -6.7954   15.3625  -10.6603 C   0  0  0  0  0  0  0  0  0  0  0  0
   -7.1244   15.8918   -9.3276 C   0  0  0  0  0  0  0  0  0  0  0  0
   -8.1399   16.7024   -8.6917 C   0  0  0  0  0  0  0  0  0  0  0  0
   -8.8956   17.4908   -9.2182 O   0  0  0  0  0  0  0  0  0  0  0  0
   -8.0583   16.3803   -7.3601 N   0  0  0  0  0  0  0  0  0  0  0  0
   -7.3192   15.2543   -7.1341 C   0  0  0  0  0  0  0  0  0  0  0  0
   -6.8431   14.8892   -6.0807 O   0  0  0  0  0  0  0  0  0  0  0  0
   -7.2432   14.5597   -8.4726 C   0  0  0  0  0  0  0  0  0  0  0  0
   -5.9383   13.9375   -8.9336 C   0  0  0  0  0  0  0  0  0  0  0  0
   -5.9233   12.4117   -8.8096 C   0  0  0  0  0  0  0  0  0  0  0  0
   -6.6389   11.9594  -10.1090 C   0  0  0  0  0  0  0  0  0  0  0  0
   -6.2070   13.0273  -11.1373 C   0  0  0  0  0  0  0  0  0  0  0  0
   -5.8136   14.2725  -10.3696 N   0  0  0  0  0  0  0  0  0  0  0  0
   -8.7459   13.9686  -11.0495 H   0  0  0  0  0  0  0  0  0  0  0  0
   -8.6683   17.1263   -6.3419 C   0  0  0  0  0  0  0  0  0  0  0  0
   -8.2017   18.3974   -6.0361 C   0  0  0  0  0  0  0  0  0  0  0  0
   -8.8049   19.1300   -5.0322 C   0  0  0  0  0  0  0  0  0  0  0  0
   -9.8721   18.5985   -4.3322 C   0  0  0  0  0  0  0  0  0  0  0  0
  -10.3392   17.3323   -4.6346 C   0  0  0  0  0  0  0  0  0  0  0  0
   -9.7441   16.5975   -5.6411 C   0  0  0  0  0  0  0  0  0  0  0  0
  -11.4820   16.7669   -3.8830 N   0  0  0  0  0  0  0  0  0  0  0  0
  -11.4244   15.6292   -3.4519 O   0  0  0  0  0  0  0  0  0  0  0  0
  -12.4802   17.4393   -3.6957 O   0  0  0  0  0  0  0  0  0  0  0  0
  1  2  2  0  0  0
  2  3  1  0  0  0
  3  4  1  0  0  0
  4  9  2  0  0  0
  4  5  1  0  0  0
  5  6  2  0  0  0
  6  7  1  0  0  0
  7  8  2  0  0  0
  8  9  1  0  0  0
  9 10  1  0  0  0
 10  2  1  0  0  0
 10 22  1  0  0  0
 10 11  1  0  0  0
 11 17  1  0  0  0
 11 12  1  0  0  0
 12 13  2  0  0  0
 12 14  1  0  0  0
 14 24  1  0  0  0
 14 15  1  0  0  0
 24 29  1  0  0  0
 24 25  2  0  0  0
 25 26  1  0  0  0
 26 27  2  0  0  0
 27 28  1  0  0  0
 28 30  1  0  0  0
 28 29  2  0  0  0
 30 31  1  0  0  0
 30 32  2  0  0  0
 15 16  2  0  0  0
 15 17  1  0  0  0
 17 18  1  0  0  0
 18 22  1  0  0  0
 18 19  1  0  0  0
 19 20  1  0  0  0
 20 21  1  0  0  0
 22 21  1  0  0  0
  3 23  1  0  0  0
M  CHG 1  30   1
M  CHG 1  31  -1
M  END
> <minimizedAffinity>
-8.63937

$$$$
ZINC000096418720


 23 24  0  0  0  0  0  0  0  0999 V2000
   -6.8634   17.8971   -9.7172 N   0  0  0  0  0  0  0  0  0  0  0  0
   -6.7593   20.6107  -11.8505 H   0  0  0  0  0  0  0  0  0  0  0  0
   -7.3025   19.5526  -14.4028 C   0  0  0  0  0  0  0  0  0  0  0  0
   -7.4487   19.4179  -12.9090 C   0  0  0  0  0  0  0  0  0  0  0  0
   -8.1489   20.2058  -12.1337 N   0  0  0  0  0  0  0  0  0  0  0  0
   -8.0307   19.7474  -10.8155 N   0  0  0  0  0  0  0  0  0  0  0  0
   -8.6592   20.3458   -9.6352 C   0  0  0  0  0  0  0  0  0  0  0  0
   -7.2338   18.6547  -10.8249 C   0  0  0  0  0  0  0  0  0  0  0  0
   -6.8644   18.4267  -12.1155 C   0  0  0  0  0  0  0  0  0  0  0  0
   -5.9918   17.3299  -12.5922 N   0  0  0  0  0  0  0  0  0  0  0  0
   -6.4674   16.4052  -13.2264 O   0  0  0  0  0  0  0  0  0  0  0  0
   -4.7984   17.3522  -12.3500 O   0  0  0  0  0  0  0  0  0  0  0  0
   -7.8737   16.8736   -9.4178 C   0  0  0  0  0  0  0  0  0  0  0  0
   -7.2388   15.7589   -8.5840 C   0  0  0  0  0  0  0  0  0  0  0  0
   -5.7508   16.0547   -8.3858 C   0  0  0  0  0  0  0  0  0  0  0  0
   -7.9299   15.6847   -7.2210 C   0  0  0  0  0  0  0  0  0  0  0  0
   -7.3942   14.4759   -9.2823 N   0  0  0  0  0  0  0  0  0  0  0  0
   -6.1569   13.6939   -9.2249 C   0  0  0  0  0  0  0  0  0  0  0  0
   -6.4534   12.2258   -9.5500 C   0  0  0  0  0  0  0  0  0  0  0  0
   -7.1047   12.1302  -11.2456 S   0  0  0  0  0  0  0  0  0  0  0  0
   -7.6613   10.8416  -11.4672 O   0  0  0  0  0  0  0  0  0  0  0  0
   -8.4373   13.3676  -11.2065 C   0  0  0  0  0  0  0  0  0  0  0  0
   -7.8677   14.6785  -10.6534 C   0  0  0  0  0  0  0  0  0  0  0  0
  3  4  1  0  0  0
  4  9  1  0  0  0
  4  5  2  0  0  0
  5  6  1  0  0  0
  6  7  1  0  0  0
  6  8  1  0  0  0
  8  1  1  0  0  0
  8  9  2  0  0  0
  1 13  1  0  0  0
 13 14  1  0  0  0
 14 15  1  0  0  0
 14 16  1  0  0  0
 14 17  1  0  0  0
 17 23  1  0  0  0
 17 18  1  0  0  0
 18 19  1  0  0  0
 19 20  1  0  0  0
 20 21  2  0  0  0
 20 22  1  0  0  0
 22 23  1  0  0  0
  9 10  1  0  0  0
 10 11  1  0  0  0
 10 12  2  0  0  0
  1  2  1  0  0  0
M  CHG 1  10   1
M  CHG 1  11  -1
M  END
> <minimizedAffinity>
-7.38902

$$$$
ZINC000019961074


 33 36  0  0  0  0  0  0  0  0999 V2000
   -6.8186   18.2568   -9.7869 C   0  0  0  0  0  0  0  0  0  0  0  0
   -7.5535   18.6672  -11.0644 C   0  0  0  0  0  0  0  0  0  0  0  0
   -8.2196   20.0023  -10.8583 C   0  0  0  0  0  0  0  0  0  0  0  0
   -8.2561   20.8016  -11.7695 O   0  0  0  0  0  0  0  0  0  0  0  0
   -8.7744   20.3169   -9.6753 N   0  0  0  0  0  0  0  0  0  0  0  0
   -8.6568   19.4699   -8.5870 C   0  0  0  0  0  0  0  0  0  0  0  0
   -7.7264   18.4457   -8.6016 C   0  0  0  0  0  0  0  0  0  0  0  0
   -7.6367   17.5923   -7.4975 C   0  0  0  0  0  0  0  0  0  0  0  0
   -6.8341   16.6725   -7.4849 O   0  0  0  0  0  0  0  0  0  0  0  0
   -8.4555   17.8065   -6.4453 N   0  0  0  0  0  0  0  0  0  0  0  0
   -9.3320   18.8473   -6.4653 C   0  0  0  0  0  0  0  0  0  0  0  0
   -9.4218   19.6505   -7.5046 N   0  0  0  0  0  0  0  0  0  0  0  0
   -6.9023   15.9869   -9.1468 H   0  0  0  0  0  0  0  0  0  0  0  0
   -6.9023   15.9869   -9.1468 H   0  0  0  0  0  0  0  0  0  0  0  0
  -10.1386   19.0640   -5.3802 N   0  0  0  0  0  0  0  0  0  0  0  0
  -10.7397   17.9389   -4.6465 C   0  0  0  0  0  0  0  0  0  0  0  0
  -10.4483   18.1249   -3.1530 C   0  0  0  0  0  0  0  0  0  0  0  0
  -10.8577   19.4349   -2.7530 O   0  0  0  0  0  0  0  0  0  0  0  0
  -10.1532   20.4933   -3.4066 C   0  0  0  0  0  0  0  0  0  0  0  0
  -10.4250   20.4285   -4.9097 C   0  0  0  0  0  0  0  0  0  0  0  0
   -5.4993   16.3876   -9.2078 O   0  0  0  0  0  0  0  0  0  0  0  0
   -6.4141   16.8083   -9.8839 C   0  0  0  0  0  0  0  0  0  0  0  0
   -7.0725   15.9791  -10.7179 N   0  0  0  0  0  0  0  0  0  0  0  0
   -5.2909   16.5078  -10.2068 H   0  0  0  0  0  0  0  0  0  0  0  0
   -6.6422   14.6569  -10.8736 C   0  0  0  0  0  0  0  0  0  0  0  0
   -5.5092   14.3780  -11.6263 C   0  0  0  0  0  0  0  0  0  0  0  0
   -5.0867   13.0717  -11.7777 C   0  0  0  0  0  0  0  0  0  0  0  0
   -5.7906   12.0423  -11.1806 C   0  0  0  0  0  0  0  0  0  0  0  0
   -6.9195   12.3167  -10.4303 C   0  0  0  0  0  0  0  0  0  0  0  0
   -7.3441   13.6210  -10.2708 C   0  0  0  0  0  0  0  0  0  0  0  0
   -8.5522   13.9139   -9.4673 N   0  0  0  0  0  0  0  0  0  0  0  0
   -8.4584   14.0776   -8.2640 O   0  0  0  0  0  0  0  0  0  0  0  0
   -9.6401   13.9912  -10.0094 O   0  0  0  0  0  0  0  0  0  0  0  0
 21 22  2  0  0  0
 22 23  1  0  0  0
 22  1  1  0  0  0
 23 25  1  0  0  0
 25 30  1  0  0  0
 25 26  2  0  0  0
 26 27  1  0  0  0
 27 28  2  0  0  0
 28 29  1  0  0  0
 29 30  2  0  0  0
 30 31  1  0  0  0
 31 32  1  0  0  0
 31 33  2  0  0  0
  1  7  1  0  0  0
  1  2  1  0  0  0
  2  3  1  0  0  0
  3  4  2  0  0  0
  3  5  1  0  0  0
  5  6  1  0  0  0
  6 12  1  0  0  0
  6  7  2  0  0  0
  7  8  1  0  0  0
  8  9  2  0  0  0
  8 10  1  0  0  0
 10 11  1  0  0  0
 11 15  1  0  0  0
 11 12  2  0  0  0
 15 20  1  0  0  0
 15 16  1  0  0  0
 16 17  1  0  0  0
 17 18  1  0  0  0
 18 19  1  0  0  0
 19 20  1  0  0  0
 23 24  1  0  0  0
  5 13  1  0  0  0
 10 14  1  0  0  0
M  CHG 1  31   1
M  CHG 1  32  -1
M  END
> <minimizedAffinity>
-9.06716

$$$$
ZINC000013640062


 31 33  0  0  0  0  0  0  0  0999 V2000
   -6.7013   14.7012  -12.4928 C   0  0  0  0  0  0  0  0  0  0  0  0
   -8.0543   14.5675  -11.8445 C   0  0  0  0  0  0  0  0  0  0  0  0
   -8.9950   14.1611  -12.4983 O   0  0  0  0  0  0  0  0  0  0  0  0
   -8.2327   14.8867  -10.5700 N   0  0  0  0  0  0  0  0  0  0  0  0
   -7.2652   15.4112   -9.8396 C   0  0  0  0  0  0  0  0  0  0  0  0
   -7.4581   15.5784   -8.5015 N   0  0  0  0  0  0  0  0  0  0  0  0
   -6.8981   16.7453   -7.8052 C   0  0  0  0  0  0  0  0  0  0  0  0
   -8.0354   17.4760   -7.0807 C   0  0  0  0  0  0  0  0  0  0  0  0
   -8.8076   16.4931   -6.3076 N   0  0  0  0  0  0  0  0  0  0  0  0
   -8.9991   16.6591   -4.9838 C   0  0  0  0  0  0  0  0  0  0  0  0
   -9.6381   15.8414   -4.3563 O   0  0  0  0  0  0  0  0  0  0  0  0
   -9.3676   15.3263   -7.0039 C   0  0  0  0  0  0  0  0  0  0  0  0
   -8.2350   14.5986   -7.7295 C   0  0  0  0  0  0  0  0  0  0  0  0
   -6.0828   15.7871  -10.3911 N   0  0  0  0  0  0  0  0  0  0  0  0
   -5.9330   15.8546  -11.8458 C   0  0  0  0  0  0  0  0  0  0  0  0
   -5.2367   11.2126  -12.5527 H   0  0  0  0  0  0  0  0  0  0  0  0
   -5.2367   11.2126  -12.5527 H   0  0  0  0  0  0  0  0  0  0  0  0
   -6.4806   17.1661  -12.3469 C   0  0  0  0  0  0  0  0  0  0  0  0
   -6.3344   17.5131  -13.6768 C   0  0  0  0  0  0  0  0  0  0  0  0
   -6.8368   18.7164  -14.1365 C   0  0  0  0  0  0  0  0  0  0  0  0
   -7.4856   19.5720  -13.2664 C   0  0  0  0  0  0  0  0  0  0  0  0
   -7.6326   19.2245  -11.9362 C   0  0  0  0  0  0  0  0  0  0  0  0
   -7.1341   18.0197  -11.4776 C   0  0  0  0  0  0  0  0  0  0  0  0
   -8.3269   20.1412  -11.0042 N   0  0  0  0  0  0  0  0  0  0  0  0
   -9.1802   19.7106  -10.2492 O   0  0  0  0  0  0  0  0  0  0  0  0
   -8.0447   21.3259  -10.9922 O   0  0  0  0  0  0  0  0  0  0  0  0
   -5.9292   13.4198  -12.3109 C   0  0  0  0  0  0  0  0  0  0  0  0
   -4.7414   13.3940  -12.5301 O   0  0  0  0  0  0  0  0  0  0  0  0
   -6.5613   12.3073  -11.9054 O   0  0  0  0  0  0  0  0  0  0  0  0
   -6.0985   11.9920   -9.5354 C   0  0  0  0  0  0  0  0  0  0  0  0
   -5.8637   11.4633  -10.9518 C   0  0  0  0  0  0  0  0  0  0  0  0
 30 31  1  0  0  0
 31 29  1  0  0  0
 29 27  1  0  0  0
 27 28  2  0  0  0
 27  1  1  0  0  0
  1 15  1  0  0  0
  1  2  1  0  0  0
  2  3  1  0  0  0
  2  4  2  0  0  0
  4  5  1  0  0  0
  5  6  2  0  0  0
  5 14  1  0  0  0
  6 13  1  0  0  0
  6  7  1  0  0  0
  7  8  1  0  0  0
  8  9  1  0  0  0
  9 10  1  0  0  0
  9 12  1  0  0  0
 10 11  2  0  0  0
 12 13  1  0  0  0
 14 15  1  0  0  0
 15 18  1  0  0  0
 18 23  1  0  0  0
 18 19  2  0  0  0
 19 20  1  0  0  0
 20 21  2  0  0  0
 21 22  1  0  0  0
 22 24  1  0  0  0
 22 23  2  0  0  0
 24 25  1  0  0  0
 24 26  2  0  0  0
  3 16  1  0  0  0
 14 17  1  0  0  0
M  CHG 1   6   1
M  CHG 1  24   1
M  CHG 1  25  -1
M  END
> <minimizedAffinity>
-8.64955

$$$$
ZINC000069631564


 24 25  0  0  0  0  0  0  0  0999 V2000
   -6.2529   13.0948  -11.3150 N   0  0  0  0  0  0  0  0  0  0  0  0
   -5.7247   13.6849  -10.0785 C   0  0  0  0  0  0  0  0  0  0  0  0
   -5.6473   15.2074  -10.2328 C   0  0  0  0  0  0  0  0  0  0  0  0
   -6.9754   15.7046  -10.6238 N   0  0  0  0  0  0  0  0  0  0  0  0
   -7.6523   15.0562  -11.7575 C   0  0  0  0  0  0  0  0  0  0  0  0
   -7.6355   13.5410  -11.5291 C   0  0  0  0  0  0  0  0  0  0  0  0
   -6.6536   10.9729  -12.6680 H   0  0  0  0  0  0  0  0  0  0  0  0
   -7.5627   16.7373   -9.9538 C   0  0  0  0  0  0  0  0  0  0  0  0
   -8.4141   16.4884   -8.8723 C   0  0  0  0  0  0  0  0  0  0  0  0
   -9.0027   17.5958   -8.2044 C   0  0  0  0  0  0  0  0  0  0  0  0
   -9.7488   17.4185   -7.2586 O   0  0  0  0  0  0  0  0  0  0  0  0
   -8.7262   18.8445   -8.6292 N   0  0  0  0  0  0  0  0  0  0  0  0
   -9.3298   19.9907   -7.9452 C   0  0  0  0  0  0  0  0  0  0  0  0
   -7.9036   19.0525   -9.6715 C   0  0  0  0  0  0  0  0  0  0  0  0
   -7.6751   20.1921  -10.0278 O   0  0  0  0  0  0  0  0  0  0  0  0
   -7.3231   18.0322  -10.3266 N   0  0  0  0  0  0  0  0  0  0  0  0
   -6.4336   18.3086  -11.4574 C   0  0  0  0  0  0  0  0  0  0  0  0
   -8.6857   15.1482   -8.4473 C   0  0  0  0  0  0  0  0  0  0  0  0
   -8.9012   14.0849   -8.1103 N   0  0  0  0  0  0  0  0  0  0  0  0
   -6.2241   11.6300  -11.2077 C   0  0  0  0  0  0  0  0  0  0  0  0
   -4.7585    9.6259  -11.4870 C   0  0  0  0  0  0  0  0  0  0  0  0
   -4.7758   11.1418  -11.2803 C   0  0  0  0  0  0  0  0  0  0  0  0
   -4.1126   11.7792  -12.3740 O   0  0  0  0  0  0  0  0  0  0  0  0
   -6.9330   11.2507  -12.6576 H   0  0  0  0  0  0  0  0  0  0  0  0
 21 22  1  0  0  0
 22 23  1  0  0  0
 22 20  1  0  0  0
 20  1  1  0  0  0
  1  6  1  0  0  0
  1  2  1  0  0  0
  2  3  1  0  0  0
  3  4  1  0  0  0
  4  8  1  0  0  0
  4  5  1  0  0  0
  8 16  1  0  0  0
  8  9  2  0  0  0
  9 18  1  0  0  0
  9 10  1  0  0  0
 18 19  3  0  0  0
 10 11  2  0  0  0
 10 12  1  0  0  0
 12 13  1  0  0  0
 12 14  1  0  0  0
 14 15  2  0  0  0
 14 16  1  0  0  0
 16 17  1  0  0  0
  5  6  1  0  0  0
 23 24  1  0  0  0
  1  7  1  0  0  0
M  CHG 1   1   1
M  END
> <minimizedAffinity>
-6.75490

$$$$
ZINC000011858078


 28 30  0  0  0  0  0  0  0  0999 V2000
   -7.2618   14.8316   -8.6167 C   0  0  0  0  0  0  0  0  0  0  0  0
   -8.6443   14.8456   -8.6183 C   0  0  0  0  0  0  0  0  0  0  0  0
   -9.3352   15.1056   -7.4507 C   0  0  0  0  0  0  0  0  0  0  0  0
   -8.6397   15.3527   -6.2746 C   0  0  0  0  0  0  0  0  0  0  0  0
   -7.2509   15.3374   -6.2762 C   0  0  0  0  0  0  0  0  0  0  0  0
   -6.5661   15.0720   -7.4457 C   0  0  0  0  0  0  0  0  0  0  0  0
   -5.0593   15.0547   -7.4483 C   0  0  0  0  0  0  0  0  0  0  0  0
   -9.3365   15.6159   -5.0901 N   0  0  0  0  0  0  0  0  0  0  0  0
   -9.4884   14.7564   -4.0761 C   0  0  0  0  0  0  0  0  0  0  0  0
   -9.0035   13.6454   -4.1161 O   0  0  0  0  0  0  0  0  0  0  0  0
  -10.2797   15.2166   -2.8880 C   0  0  0  0  0  0  0  0  0  0  0  0
  -10.3411   16.7642   -2.9263 C   0  0  0  0  0  0  0  0  0  0  0  0
  -10.1001   17.0527   -4.7209 S   0  0  0  0  0  0  0  0  0  0  0  0
   -9.1358   18.0691   -4.9583 O   0  0  0  0  0  0  0  0  0  0  0  0
  -11.3340   17.0072   -5.4242 O   0  0  0  0  0  0  0  0  0  0  0  0
   -6.3842   14.4995  -10.1081 S   0  0  0  0  0  0  0  0  0  0  0  0
   -7.3625   14.3863  -11.1325 O   0  0  0  0  0  0  0  0  0  0  0  0
   -5.4534   13.4695   -9.8051 O   0  0  0  0  0  0  0  0  0  0  0  0
   -5.4908   15.8482  -10.4618 N   0  0  0  0  0  0  0  0  0  0  0  0
   -5.5162   19.1645   -9.7676 H   0  0  0  0  0  0  0  0  0  0  0  0
   -6.6342   17.9399  -10.8400 C   0  0  0  0  0  0  0  0  0  0  0  0
   -7.1325   18.8899  -11.7095 C   0  0  0  0  0  0  0  0  0  0  0  0
   -7.0027   18.7153  -13.0753 C   0  0  0  0  0  0  0  0  0  0  0  0
   -6.3736   17.5899  -13.5749 C   0  0  0  0  0  0  0  0  0  0  0  0
   -5.8725   16.6361  -12.7107 C   0  0  0  0  0  0  0  0  0  0  0  0
   -5.9964   16.8108  -11.3385 C   0  0  0  0  0  0  0  0  0  0  0  0
   -8.2263   18.4901   -9.0202 C   0  0  0  0  0  0  0  0  0  0  0  0
   -6.7766   18.1307   -9.3519 C   0  0  0  0  0  0  0  0  0  0  0  0
 27 28  1  0  0  0
 28 21  1  0  0  0
 21 26  2  0  0  0
 21 22  1  0  0  0
 22 23  2  0  0  0
 23 24  1  0  0  0
 24 25  2  0  0  0
 25 26  1  0  0  0
 26 19  1  0  0  0
 19 16  1  0  0  0
 16 17  2  0  0  0
 16 18  2  0  0  0
 16  1  1  0  0  0
  1  6  1  0  0  0
  1  2  2  0  0  0
  2  3  1  0  0  0
  3  4  2  0  0  0
  4  8  1  0  0  0
  4  5  1  0  0  0
  8 13  1  0  0  0
  8  9  1  0  0  0
  9 10  2  0  0  0
  9 11  1  0  0  0
 11 12  1  0  0  0
 12 13  1  0  0  0
 13 14  2  0  0  0
 13 15  2  0  0  0
  5  6  2  0  0  0
  6  7  1  0  0  0
 19 20  1  0  0  0
M  END
> <minimizedAffinity>
-8.06672

$$$$
ZINC000228925593


 18 19  0  0  0  0  0  0  0  0999 V2000
   -6.6087   16.9373  -12.2207 C   0  0  0  0  0  0  0  0  0  0  0  0
   -6.4061   17.4378  -13.5067 C   0  0  0  0  0  0  0  0  0  0  0  0
   -6.8231   18.7153  -13.8207 C   0  0  0  0  0  0  0  0  0  0  0  0
   -7.4408   19.4998  -12.8634 C   0  0  0  0  0  0  0  0  0  0  0  0
   -7.6448   19.0106  -11.5856 C   0  0  0  0  0  0  0  0  0  0  0  0
   -7.2379   17.7317  -11.2600 C   0  0  0  0  0  0  0  0  0  0  0  0
   -7.4945   17.1187   -9.6562 Cl  0  0  0  0  0  0  0  0  0  0  0  0
   -8.3632   14.3786  -12.2944 C   0  0  0  0  0  0  0  0  0  0  0  0
   -6.9505   14.4334  -11.9102 N   0  0  0  0  0  0  0  0  0  0  0  0
   -6.1933   13.3838  -11.5336 C   0  0  0  0  0  0  0  0  0  0  0  0
   -6.7086   11.7552  -11.4190 S   0  0  0  0  0  0  0  0  0  0  0  0
   -4.9562   13.8485  -11.2631 N   0  0  0  0  0  0  0  0  0  0  0  0
   -4.9675   15.2322  -11.4854 N   0  0  0  0  0  0  0  0  0  0  0  0
   -6.1644   15.5683  -11.8776 C   0  0  0  0  0  0  0  0  0  0  0  0
   -5.7016   15.0842  -10.5917 H   0  0  0  0  0  0  0  0  0  0  0  0
   -8.3066   19.8568  -10.5674 N   0  0  0  0  0  0  0  0  0  0  0  0
   -7.6801   20.7391  -10.0082 O   0  0  0  0  0  0  0  0  0  0  0  0
   -9.4775   19.6709  -10.2886 O   0  0  0  0  0  0  0  0  0  0  0  0
  8  9  1  0  0  0
  9 14  1  0  0  0
  9 10  1  0  0  0
 10 11  2  0  0  0
 10 12  1  0  0  0
 12 13  1  0  0  0
 13 14  2  0  0  0
 14  1  1  0  0  0
  1  6  1  0  0  0
  1  2  2  0  0  0
  2  3  1  0  0  0
  3  4  2  0  0  0
  4  5  1  0  0  0
  5 16  1  0  0  0
  5  6  2  0  0  0
 16 17  1  0  0  0
 16 18  2  0  0  0
  6  7  1  0  0  0
 12 15  1  0  0  0
M  CHG 1  16   1
M  CHG 1  17  -1
M  END
> <minimizedAffinity>
-6.41284

$$$$
ZINC000585282996


 28 30  0  0  0  0  0  0  0  0999 V2000
   -5.9614   11.4018  -11.0295 C   0  0  0  0  0  0  0  0  0  0  0  0
   -6.1386   12.1653   -9.7423 C   0  0  0  0  0  0  0  0  0  0  0  0
   -6.7506   11.6674   -8.8213 O   0  0  0  0  0  0  0  0  0  0  0  0
   -5.6170   13.4015   -9.6148 N   0  0  0  0  0  0  0  0  0  0  0  0
   -4.8836   13.9788  -10.7575 C   0  0  0  0  0  0  0  0  0  0  0  0
   -5.2353   15.4606  -10.9767 C   0  0  0  0  0  0  0  0  0  0  0  0
   -6.6578   15.6515  -10.7730 N   0  0  0  0  0  0  0  0  0  0  0  0
   -6.8890   16.0708   -9.3941 C   0  0  0  0  0  0  0  0  0  0  0  0
   -7.0881   14.9667   -8.4339 C   0  0  0  0  0  0  0  0  0  0  0  0
   -8.1820   14.1537   -8.8634 O   0  0  0  0  0  0  0  0  0  0  0  0
   -5.8061   14.1073   -8.3634 C   0  0  0  0  0  0  0  0  0  0  0  0
   -6.2608   12.1716   -9.6751 H   0  0  0  0  0  0  0  0  0  0  0  0
   -6.2608   12.1716   -9.6751 H   0  0  0  0  0  0  0  0  0  0  0  0
   -7.1516   16.6852  -11.6924 C   0  0  0  0  0  0  0  0  0  0  0  0
   -7.0664   18.0565  -11.0151 C   0  0  0  0  0  0  0  0  0  0  0  0
   -7.5085   19.1354  -12.0072 C   0  0  0  0  0  0  0  0  0  0  0  0
   -6.6863   19.0731  -13.1743 O   0  0  0  0  0  0  0  0  0  0  0  0
   -6.7618   17.8303  -13.8757 C   0  0  0  0  0  0  0  0  0  0  0  0
   -6.2897   16.6990  -12.9586 C   0  0  0  0  0  0  0  0  0  0  0  0
   -7.3939   15.5433   -7.0502 C   0  0  0  0  0  0  0  0  0  0  0  0
   -8.7356   16.0348   -7.0249 O   0  0  0  0  0  0  0  0  0  0  0  0
   -8.8995   17.3724   -6.8500 C   0  0  0  0  0  0  0  0  0  0  0  0
   -9.1698   18.1876   -7.9396 C   0  0  0  0  0  0  0  0  0  0  0  0
   -9.3364   19.5471   -7.7592 C   0  0  0  0  0  0  0  0  0  0  0  0
   -9.2337   20.0955   -6.4942 C   0  0  0  0  0  0  0  0  0  0  0  0
   -9.4154   21.5789   -6.3003 C   0  0  0  0  0  0  0  0  0  0  0  0
   -8.9648   19.2851   -5.4066 C   0  0  0  0  0  0  0  0  0  0  0  0
   -8.8025   17.9244   -5.5810 C   0  0  0  0  0  0  0  0  0  0  0  0
  1  2  1  0  0  0
  2  3  2  0  0  0
  2  4  1  0  0  0
  4 11  1  0  0  0
  4  5  1  0  0  0
  5  6  1  0  0  0
  6  7  1  0  0  0
  7 14  1  0  0  0
  7  8  1  0  0  0
 14 19  1  0  0  0
 14 15  1  0  0  0
 15 16  1  0  0  0
 16 17  1  0  0  0
 17 18  1  0  0  0
 18 19  1  0  0  0
  8  9  1  0  0  0
  9 10  1  0  0  0
  9 20  1  0  0  0
  9 11  1  0  0  0
 20 21  1  0  0  0
 21 22  1  0  0  0
 22 28  1  0  0  0
 22 23  2  0  0  0
 23 24  1  0  0  0
 24 25  2  0  0  0
 25 26  1  0  0  0
 25 27  1  0  0  0
 27 28  2  0  0  0
  7 12  1  0  0  0
 10 13  1  0  0  0
M  CHG 1   7   1
M  END
> <minimizedAffinity>
-8.61706

$$$$
ZINC000224979663


 21 22  0  0  0  0  0  0  0  0999 V2000
   -5.8975   15.3412  -11.8629 C   0  0  0  0  0  0  0  0  0  0  0  0
   -6.7994   15.9144  -11.0966 N   0  0  0  0  0  0  0  0  0  0  0  0
   -6.5654   17.2332  -11.0338 C   0  0  0  0  0  0  0  0  0  0  0  0
   -5.5084   17.5127  -11.7622 N   0  0  0  0  0  0  0  0  0  0  0  0
   -5.0543   16.3003  -12.3059 N   0  0  0  0  0  0  0  0  0  0  0  0
   -7.1486   11.4554  -11.1834 H   0  0  0  0  0  0  0  0  0  0  0  0
   -7.3690   18.2166  -10.2663 C   0  0  0  0  0  0  0  0  0  0  0  0
   -8.0714   19.2180  -10.9332 C   0  0  0  0  0  0  0  0  0  0  0  0
   -8.8178   20.1300  -10.2144 C   0  0  0  0  0  0  0  0  0  0  0  0
   -8.8690   20.0508   -8.8346 C   0  0  0  0  0  0  0  0  0  0  0  0
   -8.1732   19.0587   -8.1671 C   0  0  0  0  0  0  0  0  0  0  0  0
   -7.4286   18.1383   -8.8761 C   0  0  0  0  0  0  0  0  0  0  0  0
   -6.6715   17.0579   -8.1478 C   0  0  0  0  0  0  0  0  0  0  0  0
   -5.8005   13.6229  -12.2400 S   0  0  0  0  0  0  0  0  0  0  0  0
   -7.3101   13.0377  -11.4308 C   0  0  0  0  0  0  0  0  0  0  0  0
   -6.9845   11.8551  -10.5553 C   0  0  0  0  0  0  0  0  0  0  0  0
   -7.1427   11.9281   -9.3486 O   0  0  0  0  0  0  0  0  0  0  0  0
   -6.5630   10.8254  -11.0537 O   0  0  0  0  0  0  0  0  0  0  0  0
   -6.6668   14.0572  -10.4294 H   0  0  0  0  0  0  0  0  0  0  0  0
   -9.2731   13.7900  -12.7810 C   0  0  0  0  0  0  0  0  0  0  0  0
   -8.3293   12.6207  -12.4929 C   0  0  0  0  0  0  0  0  0  0  0  0
 20 21  1  0  0  0
 21 15  1  0  0  0
 15 14  1  0  0  0
 15 16  1  0  0  0
 14  1  1  0  0  0
  1  5  1  0  0  0
  1  2  2  0  0  0
  2  3  1  0  0  0
  3  7  1  0  0  0
  3  4  2  0  0  0
  7 12  1  0  0  0
  7  8  2  0  0  0
  8  9  1  0  0  0
  9 10  2  0  0  0
 10 11  1  0  0  0
 11 12  2  0  0  0
 12 13  1  0  0  0
  4  5  1  0  0  0
 16 17  2  0  0  0
 16 18  1  0  0  0
  5  6  1  0  0  0
 18 19  1  0  0  0
M  END
> <minimizedAffinity>
-7.34862

$$$$
ZINC000218932034


 21 22  0  0  0  0  0  0  0  0999 V2000
   -7.0531   18.7536  -11.1557 N   0  0  0  0  0  0  0  0  0  0  0  0
   -7.9100   19.7937  -11.1409 C   0  0  0  0  0  0  0  0  0  0  0  0
   -8.3116   20.2634  -12.1844 O   0  0  0  0  0  0  0  0  0  0  0  0
   -2.2904   16.1520  -11.5243 H   0  0  0  0  0  0  0  0  0  0  0  0
   -6.6066   18.1904  -12.4322 C   0  0  0  0  0  0  0  0  0  0  0  0
   -7.0468   14.5775  -12.2301 C   0  0  0  0  0  0  0  0  0  0  0  0
   -7.3639   15.8255  -12.3844 N   0  0  0  0  0  0  0  0  0  0  0  0
   -6.3862   16.7076  -12.2775 C   0  0  0  0  0  0  0  0  0  0  0  0
   -5.1889   16.1801  -12.0212 C   0  0  0  0  0  0  0  0  0  0  0  0
   -5.3735   14.4316  -11.9111 S   0  0  0  0  0  0  0  0  0  0  0  0
   -7.5289   12.1855  -11.8507 C   0  0  0  0  0  0  0  0  0  0  0  0
   -7.9360   13.5169  -12.3067 N   0  0  0  0  0  0  0  0  0  0  0  0
   -9.2827   13.7274  -12.8435 C   0  0  0  0  0  0  0  0  0  0  0  0
   -8.3693   20.3731   -9.8277 C   0  0  0  0  0  0  0  0  0  0  0  0
   -9.4350   19.4631   -9.2136 C   0  0  0  0  0  0  0  0  0  0  0  0
   -9.2230   19.3752   -7.7242 C   0  0  0  0  0  0  0  0  0  0  0  0
   -8.7919   18.1917   -7.1453 C   0  0  0  0  0  0  0  0  0  0  0  0
   -8.6098   18.1571   -5.7711 C   0  0  0  0  0  0  0  0  0  0  0  0
   -8.8624   19.2955   -5.0295 C   0  0  0  0  0  0  0  0  0  0  0  0
   -9.2716   20.4045   -5.6143 N   0  0  0  0  0  0  0  0  0  0  0  0
   -9.4503   20.4753   -6.9188 C   0  0  0  0  0  0  0  0  0  0  0  0
 11 12  1  0  0  0
 12 13  1  0  0  0
 12  6  1  0  0  0
  6 10  1  0  0  0
  6  7  2  0  0  0
  7  8  1  0  0  0
  8  5  1  0  0  0
  8  9  2  0  0  0
  5  1  1  0  0  0
  1  2  1  0  0  0
  2  3  2  0  0  0
  2 14  1  0  0  0
 14 15  1  0  0  0
 15 16  1  0  0  0
 16 21  1  0  0  0
 16 17  2  0  0  0
 17 18  1  0  0  0
 18 19  2  0  0  0
 19 20  1  0  0  0
 20 21  2  0  0  0
  9 10  1  0  0  0
  1  4  1  0  0  0
M  END
> <minimizedAffinity>
-6.69680

$$$$
ZINC000035325297


 29 32  0  0  0  0  0  0  0  0999 V2000
   -6.3645   13.5769   -9.1385 N   0  0  0  0  0  0  0  0  0  0  0  0
   -6.6493   12.1843   -9.4952 C   0  0  0  0  0  0  0  0  0  0  0  0
   -6.2799   11.9010  -10.9437 C   0  0  0  0  0  0  0  0  0  0  0  0
   -4.8095   12.2420  -11.2042 C   0  0  0  0  0  0  0  0  0  0  0  0
   -4.6033   13.7107  -10.8149 C   0  0  0  0  0  0  0  0  0  0  0  0
   -4.9323   13.8542   -9.3212 C   0  0  0  0  0  0  0  0  0  0  0  0
   -5.5760   14.5692  -11.5920 C   0  0  0  0  0  0  0  0  0  0  0  0
   -5.2045   15.8473  -11.8669 C   0  0  0  0  0  0  0  0  0  0  0  0
   -6.0814   16.7159  -12.5264 C   0  0  0  0  0  0  0  0  0  0  0  0
   -7.3237   16.2658  -12.8653 C   0  0  0  0  0  0  0  0  0  0  0  0
   -7.6764   14.9431  -12.5633 C   0  0  0  0  0  0  0  0  0  0  0  0
   -8.8057   14.5484  -12.8059 O   0  0  0  0  0  0  0  0  0  0  0  0
   -6.7754   14.0977  -12.0050 N   0  0  0  0  0  0  0  0  0  0  0  0
   -7.1473   12.6888  -11.9116 C   0  0  0  0  0  0  0  0  0  0  0  0
   -6.0845   16.1540   -8.7504 H   0  0  0  0  0  0  0  0  0  0  0  0
   -7.1488   14.4719   -9.9999 C   0  0  0  0  0  0  0  0  0  0  0  0
   -8.9296   15.3130   -8.6996 O   0  0  0  0  0  0  0  0  0  0  0  0
   -7.8240   15.5198   -9.1531 C   0  0  0  0  0  0  0  0  0  0  0  0
   -7.2014   16.6891   -8.9046 N   0  0  0  0  0  0  0  0  0  0  0  0
   -7.0360   13.7970   -7.7514 H   0  0  0  0  0  0  0  0  0  0  0  0
   -7.8679   17.7018   -8.2059 C   0  0  0  0  0  0  0  0  0  0  0  0
   -7.9866   17.6315   -6.8240 C   0  0  0  0  0  0  0  0  0  0  0  0
   -8.6446   18.6329   -6.1371 C   0  0  0  0  0  0  0  0  0  0  0  0
   -9.1849   19.7045   -6.8239 C   0  0  0  0  0  0  0  0  0  0  0  0
   -9.0685   19.7775   -8.1998 C   0  0  0  0  0  0  0  0  0  0  0  0
   -8.4070   18.7820   -8.8921 C   0  0  0  0  0  0  0  0  0  0  0  0
   -9.8891   20.7763   -6.0845 N   0  0  0  0  0  0  0  0  0  0  0  0
  -10.5523   20.5026   -5.1002 O   0  0  0  0  0  0  0  0  0  0  0  0
   -9.8053   21.9318   -6.4604 O   0  0  0  0  0  0  0  0  0  0  0  0
 17 18  2  0  0  0
 18 16  1  0  0  0
 18 19  1  0  0  0
 16  1  1  0  0  0
  1  6  1  0  0  0
  1  2  1  0  0  0
  2  3  1  0  0  0
  3 14  1  0  0  0
  3  4  1  0  0  0
  4  5  1  0  0  0
  5  6  1  0  0  0
  5  7  1  0  0  0
  7 13  1  0  0  0
  7  8  2  0  0  0
  8  9  1  0  0  0
  9 10  2  0  0  0
 10 11  1  0  0  0
 11 12  2  0  0  0
 11 13  1  0  0  0
 13 14  1  0  0  0
 19 21  1  0  0  0
 21 26  1  0  0  0
 21 22  2  0  0  0
 22 23  1  0  0  0
 23 24  2  0  0  0
 24 27  1  0  0  0
 24 25  1  0  0  0
 27 28  1  0  0  0
 27 29  2  0  0  0
 25 26  2  0  0  0
  1 15  1  0  0  0
 19 20  1  0  0  0
M  CHG 1   1   1
M  CHG 1  27   1
M  CHG 1  28  -1
M  END
> <minimizedAffinity>
-7.72487

$$$$
ZINC000078094434


 31 32  0  0  0  0  0  0  0  0999 V2000
   -7.8184   20.4262  -10.1855 N   0  0  0  0  0  0  0  0  0  0  0  0
   -7.4750   19.1995  -10.7006 C   0  0  0  0  0  0  0  0  0  0  0  0
   -7.2471   19.0603  -11.9984 N   0  0  0  0  0  0  0  0  0  0  0  0
   -6.9130   17.8766  -12.5101 C   0  0  0  0  0  0  0  0  0  0  0  0
   -6.7092   17.7808  -13.7089 O   0  0  0  0  0  0  0  0  0  0  0  0
   -6.7950   16.7850  -11.7333 N   0  0  0  0  0  0  0  0  0  0  0  0
   -7.0163   16.8644  -10.3931 C   0  0  0  0  0  0  0  0  0  0  0  0
   -7.3554   18.0711   -9.8449 C   0  0  0  0  0  0  0  0  0  0  0  0
   -7.4831   19.2040  -10.7011 H   0  0  0  0  0  0  0  0  0  0  0  0
   -7.4831   19.2040  -10.7011 H   0  0  0  0  0  0  0  0  0  0  0  0
   -6.4251   15.5013  -12.3343 C   0  0  0  0  0  0  0  0  0  0  0  0
   -5.2257   14.8816  -11.5834 C   0  0  0  0  0  0  0  0  0  0  0  0
   -5.5275   13.3664  -11.5794 C   0  0  0  0  0  0  0  0  0  0  0  0
   -4.5028   12.6499  -12.2712 O   0  0  0  0  0  0  0  0  0  0  0  0
   -6.8736   13.2497  -12.3283 C   0  0  0  0  0  0  0  0  0  0  0  0
   -7.4960   14.5451  -12.1767 O   0  0  0  0  0  0  0  0  0  0  0  0
   -7.4968   19.1242  -10.5391 H   0  0  0  0  0  0  0  0  0  0  0  0
   -7.7423   12.1606  -11.6957 C   0  0  0  0  0  0  0  0  0  0  0  0
   -7.2158   10.8757  -12.0329 O   0  0  0  0  0  0  0  0  0  0  0  0
   -8.2611   15.4410  -17.9293 H   0  0  0  0  0  0  0  0  0  0  0  0
   -7.6029   18.1964   -8.3938 C   0  0  0  0  0  0  0  0  0  0  0  0
   -8.8048   17.9297   -7.9007 C   0  0  0  0  0  0  0  0  0  0  0  0
   -9.0926   18.1765   -6.4422 C   0  0  0  0  0  0  0  0  0  0  0  0
   -9.0765   19.6175   -6.1783 N   0  0  0  0  0  0  0  0  0  0  0  0
   -9.9276   20.1470   -5.2773 C   0  0  0  0  0  0  0  0  0  0  0  0
  -10.7067   19.4307   -4.6850 O   0  0  0  0  0  0  0  0  0  0  0  0
   -5.0983   15.6397   -7.9808 H   0  0  0  0  0  0  0  0  0  0  0  0
   -9.9111   21.6293   -5.0058 C   0  0  0  0  0  0  0  0  0  0  0  0
   -9.3521   21.8663   -3.7455 F   0  0  0  0  0  0  0  0  0  0  0  0
   -9.1464   22.2741   -5.9839 F   0  0  0  0  0  0  0  0  0  0  0  0
  -11.2196   22.1234   -5.0360 F   0  0  0  0  0  0  0  0  0  0  0  0
  1  2  1  0  0  0
  2  8  1  0  0  0
  2  3  2  0  0  0
  3  4  1  0  0  0
  4  5  2  0  0  0
  4  6  1  0  0  0
  6 11  1  0  0  0
  6  7  1  0  0  0
 11 16  1  0  0  0
 11 12  1  0  0  0
 12 13  1  0  0  0
 13 14  1  0  0  0
 13 15  1  0  0  0
 15 18  1  0  0  0
 15 16  1  0  0  0
 18 19  1  0  0  0
  7  8  2  0  0  0
  8 21  1  0  0  0
 21 22  2  0  0  0
 22 23  1  0  0  0
 23 24  1  0  0  0
 24 25  1  0  0  0
 25 26  2  0  0  0
 25 28  1  0  0  0
 28 29  1  0  0  0
 28 30  1  0  0  0
 28 31  1  0  0  0
  1  9  1  0  0  0
  1 10  1  0  0  0
 14 17  1  0  0  0
 19 20  1  0  0  0
 24 27  1  0  0  0
M  END
> <minimizedAffinity>
-8.00151

$$$$
ZINC000004264704


 32 34  0  0  0  0  0  0  0  0999 V2000
   -8.0943   19.4127  -10.3805 C   0  0  0  0  0  0  0  0  0  0  0  0
   -7.4178   18.2047  -10.2105 C   0  0  0  0  0  0  0  0  0  0  0  0
   -7.3614   17.6102   -8.9530 C   0  0  0  0  0  0  0  0  0  0  0  0
   -7.9797   18.2214   -7.8648 C   0  0  0  0  0  0  0  0  0  0  0  0
   -8.6553   19.4276   -8.0335 C   0  0  0  0  0  0  0  0  0  0  0  0
   -8.7090   20.0264   -9.2891 C   0  0  0  0  0  0  0  0  0  0  0  0
   -6.6422   16.3259   -8.7718 C   0  0  0  0  0  0  0  0  0  0  0  0
   -6.0924   15.7181   -9.8189 N   0  0  0  0  0  0  0  0  0  0  0  0
   -5.4473   14.5671   -9.6560 C   0  0  0  0  0  0  0  0  0  0  0  0
   -4.8762   13.9364  -10.7428 N   0  0  0  0  0  0  0  0  0  0  0  0
   -5.3520   14.0239   -8.4468 N   0  0  0  0  0  0  0  0  0  0  0  0
   -5.9014   14.6310   -7.4000 C   0  0  0  0  0  0  0  0  0  0  0  0
   -5.8022   14.0666   -6.1444 N   0  0  0  0  0  0  0  0  0  0  0  0
   -6.5423   15.7847   -7.5613 N   0  0  0  0  0  0  0  0  0  0  0  0
   -9.1919   20.1125   -6.9001 H   0  0  0  0  0  0  0  0  0  0  0  0
   -9.1919   20.1125   -6.9001 H   0  0  0  0  0  0  0  0  0  0  0  0
   -9.1919   20.1125   -6.9001 H   0  0  0  0  0  0  0  0  0  0  0  0
   -9.1919   20.1125   -6.9001 H   0  0  0  0  0  0  0  0  0  0  0  0
   -9.3132   20.0772   -6.8739 C   0  0  0  0  0  0  0  0  0  0  0  0
   -9.6146   19.3623   -5.7938 N   0  0  0  0  0  0  0  0  0  0  0  0
  -10.2040   19.9450   -4.7543 C   0  0  0  0  0  0  0  0  0  0  0  0
  -10.5164   19.2031   -3.6331 N   0  0  0  0  0  0  0  0  0  0  0  0
  -10.4918   21.2419   -4.7944 N   0  0  0  0  0  0  0  0  0  0  0  0
  -10.1906   21.9568   -5.8736 C   0  0  0  0  0  0  0  0  0  0  0  0
  -10.4898   23.3036   -5.9147 N   0  0  0  0  0  0  0  0  0  0  0  0
   -9.5968   21.3758   -6.9116 N   0  0  0  0  0  0  0  0  0  0  0  0
   -7.3866   20.3330  -11.4109 H   0  0  0  0  0  0  0  0  0  0  0  0
   -7.3866   20.3330  -11.4109 H   0  0  0  0  0  0  0  0  0  0  0  0
   -7.3866   20.3330  -11.4109 H   0  0  0  0  0  0  0  0  0  0  0  0
   -7.3866   20.3330  -11.4109 H   0  0  0  0  0  0  0  0  0  0  0  0
   -8.1988   20.5115  -12.6992 N   0  0  0  0  0  0  0  0  0  0  0  0
   -8.1526   20.0254  -11.6736 C   0  0  0  0  0  0  0  0  0  0  0  0
 31 32  3  0  0  0
 32  1  1  0  0  0
  1  6  2  0  0  0
  1  2  1  0  0  0
  2  3  2  0  0  0
  3  7  1  0  0  0
  3  4  1  0  0  0
  7 14  1  0  0  0
  7  8  2  0  0  0
  8  9  1  0  0  0
  9 10  1  0  0  0
  9 11  2  0  0  0
 11 12  1  0  0  0
 12 13  1  0  0  0
 12 14  2  0  0  0
  4  5  2  0  0  0
  5 19  1  0  0  0
  5  6  1  0  0  0
 19 26  1  0  0  0
 19 20  2  0  0  0
 20 21  1  0  0  0
 21 22  1  0  0  0
 21 23  2  0  0  0
 23 24  1  0  0  0
 24 25  1  0  0  0
 24 26  2  0  0  0
 10 15  1  0  0  0
 10 16  1  0  0  0
 13 17  1  0  0  0
 13 18  1  0  0  0
 22 27  1  0  0  0
 22 28  1  0  0  0
 25 29  1  0  0  0
 25 30  1  0  0  0
M  END
> <minimizedAffinity>
-7.77735

$$$$
ZINC000521395882


 21 23  0  0  0  0  0  0  0  0999 V2000
   -8.4016   18.5215   -9.2342 C   0  0  0  0  0  0  0  0  0  0  0  0
   -7.5144   17.5906   -9.6529 C   0  0  0  0  0  0  0  0  0  0  0  0
   -6.9346   17.7131  -10.9957 C   0  0  0  0  0  0  0  0  0  0  0  0
   -6.0439   16.9606  -11.6814 C   0  0  0  0  0  0  0  0  0  0  0  0
   -5.8684   17.6371  -13.0225 C   0  0  0  0  0  0  0  0  0  0  0  0
   -6.7414   18.8160  -12.9959 N   0  0  0  0  0  0  0  0  0  0  0  0
   -7.3508   18.8586  -11.8360 C   0  0  0  0  0  0  0  0  0  0  0  0
   -8.2913   19.7773  -11.2937 C   0  0  0  0  0  0  0  0  0  0  0  0
   -8.7843   19.5948  -10.0504 C   0  0  0  0  0  0  0  0  0  0  0  0
   -8.6878   19.2004   -7.0128 O   0  0  0  0  0  0  0  0  0  0  0  0
   -8.9883   18.4004   -7.8807 N   0  0  0  0  0  0  0  0  0  0  0  0
   -9.7755   17.5037   -7.6362 O   0  0  0  0  0  0  0  0  0  0  0  0
   -5.3645   15.7025  -11.2053 C   0  0  0  0  0  0  0  0  0  0  0  0
   -6.3530   14.6207  -11.1033 N   0  0  0  0  0  0  0  0  0  0  0  0
   -5.8442   13.5186  -10.2746 C   0  0  0  0  0  0  0  0  0  0  0  0
   -6.9237   12.4418  -10.1446 C   0  0  0  0  0  0  0  0  0  0  0  0
   -7.2851   11.9470  -11.4795 N   0  0  0  0  0  0  0  0  0  0  0  0
   -7.8144   13.0538  -12.2871 C   0  0  0  0  0  0  0  0  0  0  0  0
   -6.7424   14.1358  -12.4349 C   0  0  0  0  0  0  0  0  0  0  0  0
   -0.6863   12.8460  -10.6096 H   0  0  0  0  0  0  0  0  0  0  0  0
   -0.6863   12.8460  -10.6096 H   0  0  0  0  0  0  0  0  0  0  0  0
 10 11  1  0  0  0
 11 12  2  0  0  0
 11  1  1  0  0  0
  1  9  1  0  0  0
  1  2  2  0  0  0
  2  3  1  0  0  0
  3  7  1  0  0  0
  3  4  2  0  0  0
  4 13  1  0  0  0
  4  5  1  0  0  0
 13 14  1  0  0  0
 14 19  1  0  0  0
 14 15  1  0  0  0
 15 16  1  0  0  0
 16 17  1  0  0  0
 17 18  1  0  0  0
 18 19  1  0  0  0
  5  6  1  0  0  0
  6  7  2  0  0  0
  7  8  1  0  0  0
  8  9  2  0  0  0
 17 20  1  0  0  0
 17 21  1  0  0  0
M  CHG 1  10  -1
M  CHG 1  11   1
M  CHG 1  17   1
M  END
> <minimizedAffinity>
-7.05846

$$$$
ZINC000248240063


 24 24  0  0  0  0  0  0  0  0999 V2000
   -6.4905   13.8300   -9.4667 C   0  0  0  0  0  0  0  0  0  0  0  0
   -5.0842   14.0185   -9.2976 O   0  0  0  0  0  0  0  0  0  0  0  0
   -9.2176   12.0652   -9.6505 H   0  0  0  0  0  0  0  0  0  0  0  0
   -7.2124   14.1818   -8.1644 C   0  0  0  0  0  0  0  0  0  0  0  0
   -6.7711   15.5052   -7.7005 N   0  0  0  0  0  0  0  0  0  0  0  0
   -7.4824   15.8917   -6.4914 N   0  0  0  0  0  0  0  0  0  0  0  0
   -8.9332   15.9194   -6.7264 C   0  0  0  0  0  0  0  0  0  0  0  0
   -9.3187   17.1635   -7.9891 S   0  0  0  0  0  0  0  0  0  0  0  0
   -9.3745   14.5961   -7.1902 N   0  0  0  0  0  0  0  0  0  0  0  0
   -8.6633   14.2095   -8.3994 N   0  0  0  0  0  0  0  0  0  0  0  0
   -4.6768   12.3466   -7.2094 H   0  0  0  0  0  0  0  0  0  0  0  0
   -4.6768   12.3466   -7.2094 H   0  0  0  0  0  0  0  0  0  0  0  0
   -4.6768   12.3466   -7.2094 H   0  0  0  0  0  0  0  0  0  0  0  0
   -4.6768   12.3466   -7.2094 H   0  0  0  0  0  0  0  0  0  0  0  0
   -4.6768   12.3466   -7.2094 H   0  0  0  0  0  0  0  0  0  0  0  0
   -6.7655   12.3912   -9.8205 C   0  0  0  0  0  0  0  0  0  0  0  0
   -6.7134   11.5388   -8.9667 O   0  0  0  0  0  0  0  0  0  0  0  0
   -7.1057   12.0161  -11.2399 C   0  0  0  0  0  0  0  0  0  0  0  0
   -8.2625   11.1771  -11.2467 O   0  0  0  0  0  0  0  0  0  0  0  0
   -7.5917   10.6776  -11.4108 H   0  0  0  0  0  0  0  0  0  0  0  0
   -8.7739   13.1778  -12.6925 C   0  0  0  0  0  0  0  0  0  0  0  0
   -7.3903   13.2836  -12.0482 C   0  0  0  0  0  0  0  0  0  0  0  0
   -6.3999   13.4306  -13.0679 O   0  0  0  0  0  0  0  0  0  0  0  0
   -7.9976   11.1563  -10.5172 H   0  0  0  0  0  0  0  0  0  0  0  0
 21 22  1  0  0  0
 22 23  1  0  0  0
 22 18  1  0  0  0
 18 19  1  0  0  0
 18 16  1  0  0  0
 16 17  2  0  0  0
 16  1  1  0  0  0
  1  2  1  0  0  0
  1  4  1  0  0  0
  4 10  1  0  0  0
  4  5  1  0  0  0
  5  6  1  0  0  0
  6  7  1  0  0  0
  7  8  1  0  0  0
  7  9  1  0  0  0
  9 10  1  0  0  0
 23 24  1  0  0  0
 19 20  1  0  0  0
  2  3  1  0  0  0
  5 11  1  0  0  0
  6 12  1  0  0  0
  8 13  1  0  0  0
  9 14  1  0  0  0
 10 15  1  0  0  0
M  END
> <minimizedAffinity>
-6.29340

$$$$
ZINC000092107202


 27 29  0  0  0  0  0  0  0  0999 V2000
   -7.4040   17.3815   -7.8526 C   0  0  0  0  0  0  0  0  0  0  0  0
   -6.7709   18.1896   -8.4983 O   0  0  0  0  0  0  0  0  0  0  0  0
   -8.3915   17.7970   -7.0350 N   0  0  0  0  0  0  0  0  0  0  0  0
   -9.2635   16.9693   -6.1694 C   0  0  0  0  0  0  0  0  0  0  0  0
   -9.4089   17.7865   -4.8676 C   0  0  0  0  0  0  0  0  0  0  0  0
   -9.1371   19.2476   -5.2821 C   0  0  0  0  0  0  0  0  0  0  0  0
   -8.8471   19.1859   -6.7931 C   0  0  0  0  0  0  0  0  0  0  0  0
  -10.8251   17.6452   -4.3062 C   0  0  0  0  0  0  0  0  0  0  0  0
  -11.5975   16.8067   -5.1679 O   0  0  0  0  0  0  0  0  0  0  0  0
   -5.7589   19.9149  -11.1369 H   0  0  0  0  0  0  0  0  0  0  0  0
   -7.0866   15.9126   -7.9646 C   0  0  0  0  0  0  0  0  0  0  0  0
   -6.3827   16.1539  -12.7021 C   0  0  0  0  0  0  0  0  0  0  0  0
   -7.1258   15.5420  -11.5425 C   0  0  0  0  0  0  0  0  0  0  0  0
   -6.8512   15.9208  -10.3253 N   0  0  0  0  0  0  0  0  0  0  0  0
   -7.4522   15.4345   -9.3003 N   0  0  0  0  0  0  0  0  0  0  0  0
   -8.4107   14.4963   -9.4222 C   0  0  0  0  0  0  0  0  0  0  0  0
   -8.9672   14.0510   -8.4314 O   0  0  0  0  0  0  0  0  0  0  0  0
   -8.7652   14.0336  -10.7079 C   0  0  0  0  0  0  0  0  0  0  0  0
   -8.1131   14.5719  -11.7809 C   0  0  0  0  0  0  0  0  0  0  0  0
  -10.3659   20.1162   -5.0054 C   0  0  0  0  0  0  0  0  0  0  0  0
   -9.9694   21.5305   -4.9772 N   0  0  0  0  0  0  0  0  0  0  0  0
  -10.1034   22.0497   -3.6092 C   0  0  0  0  0  0  0  0  0  0  0  0
   -9.6895   23.5232   -3.5825 C   0  0  0  0  0  0  0  0  0  0  0  0
  -10.4998   24.2573   -4.5046 O   0  0  0  0  0  0  0  0  0  0  0  0
  -10.4217   23.7735   -5.8484 C   0  0  0  0  0  0  0  0  0  0  0  0
  -10.8367   22.3005   -5.8795 C   0  0  0  0  0  0  0  0  0  0  0  0
   -3.0368   15.2552   -2.3215 H   0  0  0  0  0  0  0  0  0  0  0  0
 12 13  1  0  0  0
 13 19  1  0  0  0
 13 14  2  0  0  0
 14 15  1  0  0  0
 15 11  1  0  0  0
 15 16  1  0  0  0
 11  1  1  0  0  0
  1  2  2  0  0  0
  1  3  1  0  0  0
  3  7  1  0  0  0
  3  4  1  0  0  0
  4  5  1  0  0  0
  5  8  1  0  0  0
  5  6  1  0  0  0
  8  9  1  0  0  0
  6 20  1  0  0  0
  6  7  1  0  0  0
 20 21  1  0  0  0
 21 26  1  0  0  0
 21 22  1  0  0  0
 22 23  1  0  0  0
 23 24  1  0  0  0
 24 25  1  0  0  0
 25 26  1  0  0  0
 16 17  2  0  0  0
 16 18  1  0  0  0
 18 19  2  0  0  0
  9 10  1  0  0  0
 21 27  1  0  0  0
M  CHG 1  21   1
M  END
> <minimizedAffinity>
-7.34480

$$$$
ZINC000012408346


 32 35  0  0  0  0  0  0  0  0999 V2000
  -10.6351   17.7625   -3.7263 C   0  0  0  0  0  0  0  0  0  0  0  0
   -9.9911   16.6996   -4.2746 C   0  0  0  0  0  0  0  0  0  0  0  0
  -10.2878   15.4369   -3.8362 N   0  0  0  0  0  0  0  0  0  0  0  0
   -9.0711   16.8613   -5.2366 O   0  0  0  0  0  0  0  0  0  0  0  0
   -9.0651   17.9856   -5.9776 C   0  0  0  0  0  0  0  0  0  0  0  0
   -9.6498   19.1159   -5.5412 C   0  0  0  0  0  0  0  0  0  0  0  0
   -9.6473   20.2895   -6.3201 C   0  0  0  0  0  0  0  0  0  0  0  0
  -10.1675   21.2964   -5.8832 O   0  0  0  0  0  0  0  0  0  0  0  0
   -9.0114   20.3188   -7.6833 C   0  0  0  0  0  0  0  0  0  0  0  0
   -9.0647   18.9103   -8.2849 C   0  0  0  0  0  0  0  0  0  0  0  0
   -8.3734   17.9448   -7.3203 C   0  0  0  0  0  0  0  0  0  0  0  0
  -10.3368   19.1578   -4.1997 C   0  0  0  0  0  0  0  0  0  0  0  0
  -13.2027   18.3256   -1.1548 H   0  0  0  0  0  0  0  0  0  0  0  0
  -13.2027   18.3256   -1.1548 H   0  0  0  0  0  0  0  0  0  0  0  0
   -9.4347   19.8296   -3.1968 C   0  0  0  0  0  0  0  0  0  0  0  0
   -8.2297   19.2470   -2.8357 C   0  0  0  0  0  0  0  0  0  0  0  0
   -7.4315   19.9013   -1.9096 C   0  0  0  0  0  0  0  0  0  0  0  0
   -7.8606   21.1038   -1.3811 C   0  0  0  0  0  0  0  0  0  0  0  0
   -9.0135   21.6288   -1.7480 N   0  0  0  0  0  0  0  0  0  0  0  0
   -9.4334   22.9057   -1.1653 C   0  0  0  0  0  0  0  0  0  0  0  0
   -9.7954   21.0374   -2.6297 C   0  0  0  0  0  0  0  0  0  0  0  0
   -8.3544   18.9000   -9.6140 C   0  0  0  0  0  0  0  0  0  0  0  0
   -8.6835   19.8314  -10.5809 C   0  0  0  0  0  0  0  0  0  0  0  0
   -8.0321   19.8220  -11.8000 C   0  0  0  0  0  0  0  0  0  0  0  0
   -7.0511   18.8812  -12.0522 C   0  0  0  0  0  0  0  0  0  0  0  0
   -6.7213   17.9503  -11.0850 C   0  0  0  0  0  0  0  0  0  0  0  0
   -7.3699   17.9625   -9.8642 C   0  0  0  0  0  0  0  0  0  0  0  0
  -11.5881   17.5566   -2.7168 C   0  0  0  0  0  0  0  0  0  0  0  0
  -12.7731   17.5196   -2.9961 O   0  0  0  0  0  0  0  0  0  0  0  0
  -11.1912   17.3994   -1.4353 O   0  0  0  0  0  0  0  0  0  0  0  0
  -10.3647   18.8122    0.3427 C   0  0  0  0  0  0  0  0  0  0  0  0
  -11.5734   18.4176   -0.5083 C   0  0  0  0  0  0  0  0  0  0  0  0
 31 32  1  0  0  0
 32 30  1  0  0  0
 30 28  1  0  0  0
 28 29  2  0  0  0
 28  1  1  0  0  0
  1 12  1  0  0  0
  1  2  2  0  0  0
  2  3  1  0  0  0
  2  4  1  0  0  0
  4  5  1  0  0  0
  5 11  1  0  0  0
  5  6  2  0  0  0
  6  7  1  0  0  0
  6 12  1  0  0  0
  7  8  2  0  0  0
  7  9  1  0  0  0
  9 10  1  0  0  0
 10 22  1  0  0  0
 10 11  1  0  0  0
 22 27  1  0  0  0
 22 23  2  0  0  0
 23 24  1  0  0  0
 24 25  2  0  0  0
 25 26  1  0  0  0
 26 27  2  0  0  0
 12 15  1  0  0  0
 15 21  1  0  0  0
 15 16  2  0  0  0
 16 17  1  0  0  0
 17 18  2  0  0  0
 18 19  1  0  0  0
 19 20  1  0  0  0
 19 21  2  0  0  0
  3 13  1  0  0  0
  3 14  1  0  0  0
M  CHG 1  19   1
M  END
> <minimizedAffinity>
-7.93676

$$$$
ZINC000015674986


 32 36  0  0  0  0  0  0  0  0999 V2000
   -6.1439   13.8825  -10.8435 N   0  0  0  0  0  0  0  0  0  0  0  0
   -5.0441   12.9276  -11.0972 C   0  0  0  0  0  0  0  0  0  0  0  0
   -5.6520   11.5349  -10.7967 C   0  0  0  0  0  0  0  0  0  0  0  0
   -6.4150   11.0590  -11.9073 O   0  0  0  0  0  0  0  0  0  0  0  0
   -6.5688   11.8480   -9.5849 C   0  0  0  0  0  0  0  0  0  0  0  0
   -7.0943   13.2605   -9.9034 C   0  0  0  0  0  0  0  0  0  0  0  0
   -3.1987   18.7833  -15.0616 H   0  0  0  0  0  0  0  0  0  0  0  0
   -3.1987   18.7833  -15.0616 H   0  0  0  0  0  0  0  0  0  0  0  0
   -7.1764   14.0744   -8.6378 C   0  0  0  0  0  0  0  0  0  0  0  0
   -8.0797   14.9785   -8.3516 N   0  0  0  0  0  0  0  0  0  0  0  0
   -7.7552   15.4399   -7.1225 C   0  0  0  0  0  0  0  0  0  0  0  0
   -6.6840   14.7948   -6.7385 N   0  0  0  0  0  0  0  0  0  0  0  0
   -6.3443   14.0050   -7.5940 O   0  0  0  0  0  0  0  0  0  0  0  0
   -8.4787   16.4820   -6.3537 C   0  0  0  0  0  0  0  0  0  0  0  0
   -9.2895   16.1204   -5.2799 C   0  0  0  0  0  0  0  0  0  0  0  0
   -9.9618   17.0903   -4.5649 C   0  0  0  0  0  0  0  0  0  0  0  0
   -9.8339   18.4268   -4.9120 C   0  0  0  0  0  0  0  0  0  0  0  0
  -10.3831   19.5550   -4.3754 O   0  0  0  0  0  0  0  0  0  0  0  0
   -9.5828   20.6452   -4.8694 C   0  0  0  0  0  0  0  0  0  0  0  0
   -9.0667   20.1522   -6.1198 O   0  0  0  0  0  0  0  0  0  0  0  0
   -9.0236   18.7942   -5.9860 C   0  0  0  0  0  0  0  0  0  0  0  0
   -8.3439   17.8255   -6.7008 C   0  0  0  0  0  0  0  0  0  0  0  0
   -5.6027   15.1153  -10.2561 C   0  0  0  0  0  0  0  0  0  0  0  0
   -7.0083   18.4859  -12.4721 C   0  0  0  0  0  0  0  0  0  0  0  0
   -7.1376   18.4608  -11.0961 C   0  0  0  0  0  0  0  0  0  0  0  0
   -6.6827   17.3700  -10.3790 C   0  0  0  0  0  0  0  0  0  0  0  0
   -6.0990   16.3043  -11.0379 C   0  0  0  0  0  0  0  0  0  0  0  0
   -5.9710   16.3287  -12.4141 C   0  0  0  0  0  0  0  0  0  0  0  0
   -6.4293   17.4178  -13.1316 C   0  0  0  0  0  0  0  0  0  0  0  0
   -7.2670   19.7361  -14.4337 O   0  0  0  0  0  0  0  0  0  0  0  0
   -7.4953   19.6539  -13.2400 N   0  0  0  0  0  0  0  0  0  0  0  0
   -8.1286   20.5302  -12.6793 O   0  0  0  0  0  0  0  0  0  0  0  0
 30 31  1  0  0  0
 31 32  2  0  0  0
 31 24  1  0  0  0
 24 29  2  0  0  0
 24 25  1  0  0  0
 25 26  2  0  0  0
 26 27  1  0  0  0
 27 23  1  0  0  0
 27 28  2  0  0  0
 23  1  1  0  0  0
  1  6  1  0  0  0
  1  2  1  0  0  0
  2  3  1  0  0  0
  3  4  1  0  0  0
  3  5  1  0  0  0
  5  6  1  0  0  0
  6  9  1  0  0  0
  9 13  1  0  0  0
  9 10  2  0  0  0
 10 11  1  0  0  0
 11 14  1  0  0  0
 11 12  2  0  0  0
 14 22  1  0  0  0
 14 15  2  0  0  0
 15 16  1  0  0  0
 16 17  2  0  0  0
 17 21  1  0  0  0
 17 18  1  0  0  0
 18 19  1  0  0  0
 19 20  1  0  0  0
 20 21  1  0  0  0
 21 22  2  0  0  0
 12 13  1  0  0  0
 28 29  1  0  0  0
  1  7  1  0  0  0
  4  8  1  0  0  0
M  CHG 1   1   1
M  CHG 1  30  -1
M  CHG 1  31   1
M  END
> <minimizedAffinity>
-8.87039

$$$$
ZINC000052215743


 25 27  0  0  0  0  0  0  0  0999 V2000
   -8.1443   17.8875   -7.0937 N   0  0  0  0  0  0  0  0  0  0  0  0
   -8.7325   18.0738   -5.7611 C   0  0  0  0  0  0  0  0  0  0  0  0
   -8.9046   19.5688   -5.4825 C   0  0  0  0  0  0  0  0  0  0  0  0
   -9.8132   20.1810   -6.5521 C   0  0  0  0  0  0  0  0  0  0  0  0
   -9.2023   19.9309   -7.9337 C   0  0  0  0  0  0  0  0  0  0  0  0
   -9.0216   18.4255   -8.1412 C   0  0  0  0  0  0  0  0  0  0  0  0
   -9.9347   21.6231   -6.3243 N   0  0  0  0  0  0  0  0  0  0  0  0
   -8.9541   22.6370   -6.7403 C   0  0  0  0  0  0  0  0  0  0  0  0
   -9.5693   23.9652   -6.2584 C   0  0  0  0  0  0  0  0  0  0  0  0
  -10.8311   23.5586   -5.6220 N   0  0  0  0  0  0  0  0  0  0  0  0
  -10.9591   22.2282   -5.7090 C   0  0  0  0  0  0  0  0  0  0  0  0
  -11.9146   21.6234   -5.2620 O   0  0  0  0  0  0  0  0  0  0  0  0
  -13.2587   14.2493   -8.8730 H   0  0  0  0  0  0  0  0  0  0  0  0
   -7.8367   16.4724   -7.3401 C   0  0  0  0  0  0  0  0  0  0  0  0
   -7.6877   15.6873   -9.6811 N   0  0  0  0  0  0  0  0  0  0  0  0
   -7.1085   16.3378   -8.6526 C   0  0  0  0  0  0  0  0  0  0  0  0
   -6.0012   16.8149   -8.7834 O   0  0  0  0  0  0  0  0  0  0  0  0
   -8.9360   12.9229   -6.4221 H   0  0  0  0  0  0  0  0  0  0  0  0
   -5.6669   14.8025  -10.7368 C   0  0  0  0  0  0  0  0  0  0  0  0
   -6.9799   15.5565  -10.9570 C   0  0  0  0  0  0  0  0  0  0  0  0
   -6.6809   16.9477  -11.5193 C   0  0  0  0  0  0  0  0  0  0  0  0
   -5.2960   17.1818  -12.1260 C   0  0  0  0  0  0  0  0  0  0  0  0
   -6.5220   17.0776  -13.0355 C   0  0  0  0  0  0  0  0  0  0  0  0
   -7.8194   14.8121  -11.9098 C   0  0  0  0  0  0  0  0  0  0  0  0
   -8.4673   14.2376  -12.6452 N   0  0  0  0  0  0  0  0  0  0  0  0
 20 19  1  0  0  0
 20 24  1  0  0  0
 20 15  1  0  0  0
 20 21  1  0  0  0
 24 25  3  0  0  0
 15 16  1  0  0  0
 16 17  2  0  0  0
 16 14  1  0  0  0
 14  1  1  0  0  0
  1  6  1  0  0  0
  1  2  1  0  0  0
  2  3  1  0  0  0
  3  4  1  0  0  0
  4  7  1  0  0  0
  4  5  1  0  0  0
  7 11  1  0  0  0
  7  8  1  0  0  0
  8  9  1  0  0  0
  9 10  1  0  0  0
 10 11  1  0  0  0
 11 12  2  0  0  0
  5  6  1  0  0  0
 21 23  1  0  0  0
 21 22  1  0  0  0
 22 23  1  0  0  0
 15 18  1  0  0  0
 10 13  1  0  0  0
M  END
> <minimizedAffinity>
-6.88076

$$$$
ZINC000409319736


 28 29  0  0  0  0  0  0  0  0999 V2000
   -7.0805   17.9760   -8.9588 C   0  0  0  0  0  0  0  0  0  0  0  0
   -8.2472   17.5195   -8.4553 C   0  0  0  0  0  0  0  0  0  0  0  0
   -8.6323   17.8531   -7.0851 C   0  0  0  0  0  0  0  0  0  0  0  0
   -8.7649   16.8592   -6.1329 C   0  0  0  0  0  0  0  0  0  0  0  0
   -9.1364   17.2182   -4.8247 C   0  0  0  0  0  0  0  0  0  0  0  0
   -9.2600   16.3619   -3.9661 O   0  0  0  0  0  0  0  0  0  0  0  0
   -9.3546   18.5134   -4.5257 N   0  0  0  0  0  0  0  0  0  0  0  0
   -9.2219   19.4696   -5.4617 C   0  0  0  0  0  0  0  0  0  0  0  0
   -9.4254   20.6302   -5.1619 O   0  0  0  0  0  0  0  0  0  0  0  0
   -8.8630   19.1666   -6.7226 N   0  0  0  0  0  0  0  0  0  0  0  0
   -8.3608   23.8207  -12.7734 H   0  0  0  0  0  0  0  0  0  0  0  0
   -8.3608   23.8207  -12.7734 H   0  0  0  0  0  0  0  0  0  0  0  0
   -8.5197   15.4420   -6.4842 N   0  0  0  0  0  0  0  0  0  0  0  0
   -7.4008   14.9728   -6.3772 O   0  0  0  0  0  0  0  0  0  0  0  0
   -9.4370   14.7453   -6.8801 O   0  0  0  0  0  0  0  0  0  0  0  0
   -5.9884   16.4561  -10.6036 C   0  0  0  0  0  0  0  0  0  0  0  0
   -5.6291   16.1501  -11.9058 C   0  0  0  0  0  0  0  0  0  0  0  0
   -5.9588   17.0096  -12.9366 C   0  0  0  0  0  0  0  0  0  0  0  0
   -6.6499   18.1827  -12.6780 C   0  0  0  0  0  0  0  0  0  0  0  0
   -7.0928   19.3472  -14.1005 Br  0  0  0  0  0  0  0  0  0  0  0  0
   -7.0166   18.5041  -11.3881 C   0  0  0  0  0  0  0  0  0  0  0  0
   -6.6934   17.6406  -10.3364 C   0  0  0  0  0  0  0  0  0  0  0  0
   -5.6652   15.6120   -9.5909 O   0  0  0  0  0  0  0  0  0  0  0  0
   -5.6714   14.2136   -9.8849 C   0  0  0  0  0  0  0  0  0  0  0  0
   -7.0028   13.6245   -9.4959 C   0  0  0  0  0  0  0  0  0  0  0  0
   -7.0467   12.6381   -8.7994 O   0  0  0  0  0  0  0  0  0  0  0  0
   -8.6062   13.8256  -11.2476 C   0  0  0  0  0  0  0  0  0  0  0  0
   -8.1400   14.1955   -9.9232 O   0  0  0  0  0  0  0  0  0  0  0  0
 27 28  1  0  0  0
 28 25  1  0  0  0
 25 26  2  0  0  0
 25 24  1  0  0  0
 24 23  1  0  0  0
 23 16  1  0  0  0
 16 22  2  0  0  0
 16 17  1  0  0  0
 17 18  2  0  0  0
 18 19  1  0  0  0
 19 20  1  0  0  0
 19 21  2  0  0  0
 21 22  1  0  0  0
 22  1  1  0  0  0
  1  2  2  0  0  0
  2  3  1  0  0  0
  3 10  1  0  0  0
  3  4  2  0  0  0
  4 13  1  0  0  0
  4  5  1  0  0  0
 13 14  1  0  0  0
 13 15  2  0  0  0
  5  6  2  0  0  0
  5  7  1  0  0  0
  7  8  1  0  0  0
  8  9  2  0  0  0
  8 10  1  0  0  0
  7 11  1  0  0  0
 10 12  1  0  0  0
M  CHG 1  13   1
M  CHG 1  14  -1
M  END
> <minimizedAffinity>
-7.79101

$$$$
CHEMBL1796251_7.51


 42 45  0  0  0  0  0  0  0  0999 V2000
   -9.3102   18.3669   -6.2619 C   0  0  0  0  0  0  0  0  0  0  0  0
  -10.2785   17.4462   -6.1656 N   0  0  0  0  0  0  0  0  0  0  0  0
  -10.5177   16.9434   -4.9381 C   0  0  0  0  0  0  0  0  0  0  0  0
   -9.8652   17.3655   -3.8047 C   0  0  0  0  0  0  0  0  0  0  0  0
  -10.3043   16.7538   -2.2590 Cl  0  0  0  0  0  0  0  0  0  0  0  0
   -8.9146   18.3616   -3.9813 C   0  0  0  0  0  0  0  0  0  0  0  0
   -8.5821   18.7780   -5.2118 N   0  0  0  0  0  0  0  0  0  0  0  0
   -9.0113   19.0101   -7.4607 N   0  0  0  0  0  0  0  0  0  0  0  0
   -0.4406   23.1322    2.7775 H   0  0  0  0  0  0  0  0  0  0  0  0
   -6.5942   14.5109  -11.5882 N   0  0  0  0  0  0  0  0  0  0  0  0
   -6.7400   15.7949  -12.2965 C   0  0  0  0  0  0  0  0  0  0  0  0
   -5.9036   16.9919  -11.8159 C   0  0  0  0  0  0  0  0  0  0  0  0
   -6.5837   17.6302  -10.6339 C   0  0  0  0  0  0  0  0  0  0  0  0
   -7.3070   18.8170  -10.7840 C   0  0  0  0  0  0  0  0  0  0  0  0
   -8.1016   19.2971   -9.7403 C   0  0  0  0  0  0  0  0  0  0  0  0
   -8.1651   18.6272   -8.5163 C   0  0  0  0  0  0  0  0  0  0  0  0
   -7.4148   17.4480   -8.3701 C   0  0  0  0  0  0  0  0  0  0  0  0
   -6.6277   16.9430   -9.4164 C   0  0  0  0  0  0  0  0  0  0  0  0
   -5.9422   15.6037   -9.2999 C   0  0  0  0  0  0  0  0  0  0  0  0
   -6.6936   14.5328  -10.1073 C   0  0  0  0  0  0  0  0  0  0  0  0
   -7.5865   13.5086  -12.0820 C   0  0  0  0  0  0  0  0  0  0  0  0
   -7.7681   12.1764  -11.3258 C   0  0  0  0  0  0  0  0  0  0  0  0
   -5.7782   10.9403  -11.1934 C   0  0  0  0  0  0  0  0  0  0  0  0
   -6.9918   11.1333  -11.9083 O   0  0  0  0  0  0  0  0  0  0  0  0
   -8.3039   18.9603   -2.8785 N   0  0  0  0  0  0  0  0  0  0  0  0
   -4.5419    8.0397  -12.5703 H   0  0  0  0  0  0  0  0  0  0  0  0
   -8.3277   20.4219   -2.6268 C   0  0  0  0  0  0  0  0  0  0  0  0
   -7.6671   20.6709   -1.2429 C   0  0  0  0  0  0  0  0  0  0  0  0
   -8.6659   20.8345   -0.0889 C   0  0  0  0  0  0  0  0  0  0  0  0
   -9.9880   20.1251   -0.3343 C   0  0  0  0  0  0  0  0  0  0  0  0
  -10.6712   20.5704   -1.6267 C   0  0  0  0  0  0  0  0  0  0  0  0
   -9.7143   21.1493   -2.6791 C   0  0  0  0  0  0  0  0  0  0  0  0
   -9.5019   22.6557   -2.5066 N   0  0  0  0  0  0  0  0  0  0  0  0
   -2.5171    6.5363   -7.1165 H   0  0  0  0  0  0  0  0  0  0  0  0
   -9.7914   23.5905   -3.9204 S   0  0  0  0  0  0  0  0  0  0  0  0
  -11.2118   23.8842   -3.8956 O   0  0  0  0  0  0  0  0  0  0  0  0
   -8.7711   24.6064   -4.0061 O   0  0  0  0  0  0  0  0  0  0  0  0
   -9.4882   22.3954   -5.1678 C   0  0  0  0  0  0  0  0  0  0  0  0
   -9.0939   23.1047   -6.4228 C   0  0  0  0  0  0  0  0  0  0  0  0
   -9.1363   22.2637   -7.4820 F   0  0  0  0  0  0  0  0  0  0  0  0
   -9.9969   24.0880   -6.6809 F   0  0  0  0  0  0  0  0  0  0  0  0
   -7.8855   23.6895   -6.4080 F   0  0  0  0  0  0  0  0  0  0  0  0
 23 24  1  0  0  0
 24 22  1  0  0  0
 22 21  1  0  0  0
 21 10  1  0  0  0
 10 20  1  0  0  0
 10 11  1  0  0  0
 11 12  1  0  0  0
 12 13  1  0  0  0
 13 18  2  0  0  0
 13 14  1  0  0  0
 14 15  2  0  0  0
 15 16  1  0  0  0
 16 17  2  0  0  0
 16  8  1  0  0  0
  8  1  1  0  0  0
  1  7  1  0  0  0
  1  2  2  0  0  0
  2  3  1  0  0  0
  3  4  2  0  0  0
  4  6  1  0  0  0
  4  5  1  0  0  0
  6  7  2  0  0  0
  6 25  1  0  0  0
 27 32  1  0  0  0
 27 28  1  0  0  0
 27 25  1  0  0  0
 28 29  1  0  0  0
 29 30  1  0  0  0
 30 31  1  0  0  0
 31 32  1  0  0  0
 32 33  1  0  0  0
 33 35  1  0  0  0
 35 38  1  0  0  0
 35 37  2  0  0  0
 35 36  2  0  0  0
 38 39  1  0  0  0
 39 42  1  0  0  0
 39 41  1  0  0  0
 39 40  1  0  0  0
 17 18  1  0  0  0
 18 19  1  0  0  0
 19 20  1  0  0  0
  8  9  1  0  0  0
 25 26  1  0  0  0
 33 34  1  0  0  0
M  END
> <minimizedAffinity>
-8.44589

$$$$
ZINC000058407646


 27 29  0  0  0  0  0  0  0  0999 V2000
   -9.5929   20.8222   -3.8515 N   0  0  0  0  0  0  0  0  0  0  0  0
  -10.0281   19.5679   -4.0834 C   0  0  0  0  0  0  0  0  0  0  0  0
  -11.2125   19.3087   -3.9919 O   0  0  0  0  0  0  0  0  0  0  0  0
   -9.1505   18.6009   -4.4165 N   0  0  0  0  0  0  0  0  0  0  0  0
   -8.7063   23.4653   -3.1629 H   0  0  0  0  0  0  0  0  0  0  0  0
   -8.7063   23.4653   -3.1629 H   0  0  0  0  0  0  0  0  0  0  0  0
   -9.7355   24.2135   -6.3091 C   0  0  0  0  0  0  0  0  0  0  0  0
   -9.5165   23.4001   -5.1055 N   0  0  0  0  0  0  0  0  0  0  0  0
   -9.0035   24.2532   -4.0270 C   0  0  0  0  0  0  0  0  0  0  0  0
   -8.6970   23.3971   -2.7963 C   0  0  0  0  0  0  0  0  0  0  0  0
   -9.9803   22.7017   -2.3326 C   0  0  0  0  0  0  0  0  0  0  0  0
  -10.5469   21.8734   -3.4894 C   0  0  0  0  0  0  0  0  0  0  0  0
  -10.7851   22.7874   -4.6934 C   0  0  0  0  0  0  0  0  0  0  0  0
   -9.5143   23.4025   -5.1094 H   0  0  0  0  0  0  0  0  0  0  0  0
   -9.6236   17.2374   -4.6685 C   0  0  0  0  0  0  0  0  0  0  0  0
   -9.6226   16.9674   -6.1745 C   0  0  0  0  0  0  0  0  0  0  0  0
   -8.7508   15.7305   -6.5172 C   0  0  0  0  0  0  0  0  0  0  0  0
   -8.3115   16.0092   -7.9701 C   0  0  0  0  0  0  0  0  0  0  0  0
   -8.4215   17.4587   -8.1891 N   0  0  0  0  0  0  0  0  0  0  0  0
   -8.8821   18.0925   -6.9398 C   0  0  0  0  0  0  0  0  0  0  0  0
   -8.1383   18.1255   -9.3833 C   0  0  0  0  0  0  0  0  0  0  0  0
   -8.7450   19.3436   -9.6611 C   0  0  0  0  0  0  0  0  0  0  0  0
   -8.4627   20.0010  -10.8427 C   0  0  0  0  0  0  0  0  0  0  0  0
   -7.5771   19.4481  -11.7488 C   0  0  0  0  0  0  0  0  0  0  0  0
   -6.9709   18.2342  -11.4758 C   0  0  0  0  0  0  0  0  0  0  0  0
   -5.7603   17.4821  -12.7187 Br  0  0  0  0  0  0  0  0  0  0  0  0
   -7.2448   17.5745  -10.2931 C   0  0  0  0  0  0  0  0  0  0  0  0
  7  8  1  0  0  0
  8 13  1  0  0  0
  8  9  1  0  0  0
  9 10  1  0  0  0
 10 11  1  0  0  0
 11 12  1  0  0  0
 12  1  1  0  0  0
 12 13  1  0  0  0
  1  2  1  0  0  0
  2  3  2  0  0  0
  2  4  1  0  0  0
  4 15  1  0  0  0
 15 16  1  0  0  0
 16 20  1  0  0  0
 16 17  1  0  0  0
 17 18  1  0  0  0
 18 19  1  0  0  0
 19 21  1  0  0  0
 19 20  1  0  0  0
 21 27  1  0  0  0
 21 22  2  0  0  0
 22 23  1  0  0  0
 23 24  2  0  0  0
 24 25  1  0  0  0
 25 26  1  0  0  0
 25 27  2  0  0  0
  8 14  1  0  0  0
  1  5  1  0  0  0
  4  6  1  0  0  0
M  CHG 1   8   1
M  END
> <minimizedAffinity>
-7.11880

$$$$
ZINC000584906763


 21 22  0  0  0  0  0  0  0  0999 V2000
   -7.8150   14.0925   -9.5407 C   0  0  0  0  0  0  0  0  0  0  0  0
   -7.4835   13.2897   -8.6944 O   0  0  0  0  0  0  0  0  0  0  0  0
   -8.4198   15.2416   -9.1795 N   0  0  0  0  0  0  0  0  0  0  0  0
   -4.8826   11.3676  -11.7946 H   0  0  0  0  0  0  0  0  0  0  0  0
   -6.3880   14.5862  -11.4576 N   0  0  0  0  0  0  0  0  0  0  0  0
   -5.3563   13.6458  -11.9441 C   0  0  0  0  0  0  0  0  0  0  0  0
   -5.6567   12.3148  -11.2106 C   0  0  0  0  0  0  0  0  0  0  0  0
   -7.2079   12.3155  -11.1828 C   0  0  0  0  0  0  0  0  0  0  0  0
   -7.5507   13.8055  -10.9964 C   0  0  0  0  0  0  0  0  0  0  0  0
   -5.6696   16.3477  -12.9193 H   0  0  0  0  0  0  0  0  0  0  0  0
   -6.7952   15.4813  -12.5489 C   0  0  0  0  0  0  0  0  0  0  0  0
   -5.1333   17.5367  -12.6700 C   0  0  0  0  0  0  0  0  0  0  0  0
   -5.8706   16.6248  -12.6163 C   0  0  0  0  0  0  0  0  0  0  0  0
   -8.6768   15.5206   -7.7644 C   0  0  0  0  0  0  0  0  0  0  0  0
   -7.8336   16.7172   -7.3192 C   0  0  0  0  0  0  0  0  0  0  0  0
   -8.0145   17.8504   -8.2961 C   0  0  0  0  0  0  0  0  0  0  0  0
   -6.9823   18.1859   -9.1514 C   0  0  0  0  0  0  0  0  0  0  0  0
   -7.1590   19.2299  -10.0468 C   0  0  0  0  0  0  0  0  0  0  0  0
   -8.3726   19.8999  -10.0480 C   0  0  0  0  0  0  0  0  0  0  0  0
   -9.3593   19.5077   -9.1629 C   0  0  0  0  0  0  0  0  0  0  0  0
   -9.1578   18.5068   -8.3285 N   0  0  0  0  0  0  0  0  0  0  0  0
 12 13  3  0  0  0
 13 11  1  0  0  0
 11  5  1  0  0  0
  5  9  1  0  0  0
  5  6  1  0  0  0
  6  7  1  0  0  0
  7  8  1  0  0  0
  8  9  1  0  0  0
  9  1  1  0  0  0
  1  2  2  0  0  0
  1  3  1  0  0  0
  3 14  1  0  0  0
 14 15  1  0  0  0
 15 16  1  0  0  0
 16 21  1  0  0  0
 16 17  2  0  0  0
 17 18  1  0  0  0
 18 19  2  0  0  0
 19 20  1  0  0  0
 20 21  2  0  0  0
  5 10  1  0  0  0
  3  4  1  0  0  0
M  CHG 1   5   1
M  END
> <minimizedAffinity>
-6.21769

$$$$
ZINC000069463775


 25 27  0  0  0  0  0  0  0  0999 V2000
   -6.8578   13.2666  -10.3167 N   0  0  0  0  0  0  0  0  0  0  0  0
   -4.5771   16.1752  -14.7008 H   0  0  0  0  0  0  0  0  0  0  0  0
   -4.5771   16.1752  -14.7008 H   0  0  0  0  0  0  0  0  0  0  0  0
   -5.9511   14.0020  -11.2084 C   0  0  0  0  0  0  0  0  0  0  0  0
   -4.8584   13.0587  -11.7156 C   0  0  0  0  0  0  0  0  0  0  0  0
   -6.7410   14.5533  -12.3971 C   0  0  0  0  0  0  0  0  0  0  0  0
   -8.1913   14.0733  -12.3125 C   0  0  0  0  0  0  0  0  0  0  0  0
   -7.3696   19.3084  -10.9425 C   0  0  0  0  0  0  0  0  0  0  0  0
   -6.9796   18.0907  -11.7403 C   0  0  0  0  0  0  0  0  0  0  0  0
   -7.2089   16.8035  -11.3917 C   0  0  0  0  0  0  0  0  0  0  0  0
   -6.7088   16.0176  -12.3681 N   0  0  0  0  0  0  0  0  0  0  0  0
   -6.1537   16.8494  -13.3491 N   0  0  0  0  0  0  0  0  0  0  0  0
   -6.3218   18.0917  -12.9747 C   0  0  0  0  0  0  0  0  0  0  0  0
   -6.4830   13.5209   -8.9193 C   0  0  0  0  0  0  0  0  0  0  0  0
   -7.2519   14.7088   -8.4012 C   0  0  0  0  0  0  0  0  0  0  0  0
   -8.6259   14.7891   -8.5645 C   0  0  0  0  0  0  0  0  0  0  0  0
   -9.2707   15.8454   -8.0974 N   0  0  0  0  0  0  0  0  0  0  0  0
   -8.6178   16.8188   -7.4798 C   0  0  0  0  0  0  0  0  0  0  0  0
   -7.3050   16.7727   -7.3069 N   0  0  0  0  0  0  0  0  0  0  0  0
   -6.6010   15.7424   -7.7457 C   0  0  0  0  0  0  0  0  0  0  0  0
   -9.3240   17.9097   -7.0034 N   0  0  0  0  0  0  0  0  0  0  0  0
   -8.6988   18.4509   -5.7695 C   0  0  0  0  0  0  0  0  0  0  0  0
   -9.2550   19.8951   -5.6943 C   0  0  0  0  0  0  0  0  0  0  0  0
   -9.2860   20.3312   -7.1772 C   0  0  0  0  0  0  0  0  0  0  0  0
   -9.3103   19.0185   -7.9821 C   0  0  0  0  0  0  0  0  0  0  0  0
  8  9  1  0  0  0
  9 13  1  0  0  0
  9 10  2  0  0  0
 10 11  1  0  0  0
 11  6  1  0  0  0
 11 12  1  0  0  0
  6  7  1  0  0  0
  6  4  1  0  0  0
  4  5  1  0  0  0
  4  1  1  0  0  0
  1 14  1  0  0  0
 14 15  1  0  0  0
 15 20  1  0  0  0
 15 16  2  0  0  0
 16 17  1  0  0  0
 17 18  2  0  0  0
 18 21  1  0  0  0
 18 19  1  0  0  0
 21 25  1  0  0  0
 21 22  1  0  0  0
 22 23  1  0  0  0
 23 24  1  0  0  0
 24 25  1  0  0  0
 19 20  2  0  0  0
 12 13  2  0  0  0
  1  2  1  0  0  0
  1  3  1  0  0  0
M  CHG 1   1   1
M  END
> <minimizedAffinity>
-6.78027

$$$$
ZINC000225752528


 28 31  0  0  0  0  0  0  0  0999 V2000
   -9.9201   17.1370   -7.0579 O   0  0  0  0  0  0  0  0  0  0  0  0
   -8.8407   17.6895   -7.0325 C   0  0  0  0  0  0  0  0  0  0  0  0
   -8.6470   18.7537   -6.2284 N   0  0  0  0  0  0  0  0  0  0  0  0
   -9.9177   17.1414   -7.0579 H   0  0  0  0  0  0  0  0  0  0  0  0
   -7.7178   17.1899   -7.9046 C   0  0  0  0  0  0  0  0  0  0  0  0
   -7.7478   17.8928   -9.1896 N   0  0  0  0  0  0  0  0  0  0  0  0
   -8.4773   19.0318   -9.3169 C   0  0  0  0  0  0  0  0  0  0  0  0
   -8.5542   19.7112  -10.4207 N   0  0  0  0  0  0  0  0  0  0  0  0
   -7.8986   19.3217  -11.5426 C   0  0  0  0  0  0  0  0  0  0  0  0
   -7.9803   20.0518  -12.7297 C   0  0  0  0  0  0  0  0  0  0  0  0
   -7.2975   19.6194  -13.8446 C   0  0  0  0  0  0  0  0  0  0  0  0
   -6.5277   18.4647  -13.8040 C   0  0  0  0  0  0  0  0  0  0  0  0
   -6.4313   17.7271  -12.6439 C   0  0  0  0  0  0  0  0  0  0  0  0
   -7.1140   18.1475  -11.5047 C   0  0  0  0  0  0  0  0  0  0  0  0
   -7.0438   17.4047  -10.2376 C   0  0  0  0  0  0  0  0  0  0  0  0
   -6.3830   16.3875  -10.1365 O   0  0  0  0  0  0  0  0  0  0  0  0
   -9.7404   19.2430   -5.3850 C   0  0  0  0  0  0  0  0  0  0  0  0
   -9.7359   20.7500   -5.3810 C   0  0  0  0  0  0  0  0  0  0  0  0
   -9.3907   21.4523   -6.5277 C   0  0  0  0  0  0  0  0  0  0  0  0
   -9.3987   22.8349   -6.4834 C   0  0  0  0  0  0  0  0  0  0  0  0
   -9.7520   23.4730   -5.2931 C   0  0  0  0  0  0  0  0  0  0  0  0
  -10.0761   22.7625   -4.2176 N   0  0  0  0  0  0  0  0  0  0  0  0
  -10.0813   21.4453   -4.2368 C   0  0  0  0  0  0  0  0  0  0  0  0
   -9.7663   24.9481   -5.2287 C   0  0  0  0  0  0  0  0  0  0  0  0
   -9.8905   25.7923   -6.2880 C   0  0  0  0  0  0  0  0  0  0  0  0
   -9.8543   27.1013   -5.7698 C   0  0  0  0  0  0  0  0  0  0  0  0
   -9.7112   26.9936   -4.4337 C   0  0  0  0  0  0  0  0  0  0  0  0
   -9.6642   25.6918   -4.1099 O   0  0  0  0  0  0  0  0  0  0  0  0
  1  2  2  0  0  0
  2  5  1  0  0  0
  2  3  1  0  0  0
  5  6  1  0  0  0
  6 15  1  0  0  0
  6  7  1  0  0  0
  7  8  2  0  0  0
  8  9  1  0  0  0
  9 14  2  0  0  0
  9 10  1  0  0  0
 10 11  2  0  0  0
 11 12  1  0  0  0
 12 13  2  0  0  0
 13 14  1  0  0  0
 14 15  1  0  0  0
 15 16  2  0  0  0
  3 17  1  0  0  0
 17 18  1  0  0  0
 18 23  1  0  0  0
 18 19  2  0  0  0
 19 20  1  0  0  0
 20 21  2  0  0  0
 21 24  1  0  0  0
 21 22  1  0  0  0
 24 28  1  0  0  0
 24 25  2  0  0  0
 25 26  1  0  0  0
 26 27  2  0  0  0
 27 28  1  0  0  0
 22 23  2  0  0  0
  3  4  1  0  0  0
M  END
> <minimizedAffinity>
-8.57820

$$$$
ZINC000257266011


 25 26  0  0  0  0  0  0  0  0999 V2000
   -8.6194   19.8434  -10.6246 C   0  0  0  0  0  0  0  0  0  0  0  0
   -8.6980   19.5011   -9.1591 C   0  0  0  0  0  0  0  0  0  0  0  0
   -9.4442   20.1206   -8.4308 O   0  0  0  0  0  0  0  0  0  0  0  0
   -7.9390   18.5067   -8.6576 N   0  0  0  0  0  0  0  0  0  0  0  0
   -7.0525   17.7874   -9.5491 C   0  0  0  0  0  0  0  0  0  0  0  0
   -7.7892   16.5672  -10.1492 C   0  0  0  0  0  0  0  0  0  0  0  0
   -7.9964   15.5845   -9.1559 N   0  0  0  0  0  0  0  0  0  0  0  0
   -8.8684   15.9936   -8.0571 C   0  0  0  0  0  0  0  0  0  0  0  0
   -8.0395   16.6675   -6.9861 C   0  0  0  0  0  0  0  0  0  0  0  0
   -8.0367   18.1933   -7.2176 C   0  0  0  0  0  0  0  0  0  0  0  0
   -8.5702   19.7962   -8.7558 H   0  0  0  0  0  0  0  0  0  0  0  0
   -6.6249   16.1513   -7.0464 C   0  0  0  0  0  0  0  0  0  0  0  0
   -6.3639   14.8638   -6.7450 N   0  0  0  0  0  0  0  0  0  0  0  0
   -5.7213   16.8944   -7.3662 O   0  0  0  0  0  0  0  0  0  0  0  0
   -8.7149   19.4536   -9.2185 H   0  0  0  0  0  0  0  0  0  0  0  0
   -8.7149   19.4536   -9.2185 H   0  0  0  0  0  0  0  0  0  0  0  0
   -8.5842   14.3984   -9.7928 C   0  0  0  0  0  0  0  0  0  0  0  0
   -7.5481   13.3073   -9.8759 C   0  0  0  0  0  0  0  0  0  0  0  0
   -7.2716   12.6572   -8.8900 O   0  0  0  0  0  0  0  0  0  0  0  0
   -6.9287   13.0539  -11.0457 N   0  0  0  0  0  0  0  0  0  0  0  0
   -7.2430   13.8333  -12.2536 C   0  0  0  0  0  0  0  0  0  0  0  0
   -5.9277   14.3300  -12.8644 C   0  0  0  0  0  0  0  0  0  0  0  0
   -5.0407   13.2221  -13.0366 O   0  0  0  0  0  0  0  0  0  0  0  0
   -4.6669   12.5764  -11.8171 C   0  0  0  0  0  0  0  0  0  0  0  0
   -5.9138   11.9936  -11.1513 C   0  0  0  0  0  0  0  0  0  0  0  0
  1  2  1  0  0  0
  2  3  2  0  0  0
  2  4  1  0  0  0
  4 10  1  0  0  0
  4  5  1  0  0  0
  5  6  1  0  0  0
  6  7  1  0  0  0
  7 17  1  0  0  0
  7  8  1  0  0  0
 17 18  1  0  0  0
 18 19  2  0  0  0
 18 20  1  0  0  0
 20 25  1  0  0  0
 20 21  1  0  0  0
 21 22  1  0  0  0
 22 23  1  0  0  0
 23 24  1  0  0  0
 24 25  1  0  0  0
  8  9  1  0  0  0
  9 12  1  0  0  0
  9 10  1  0  0  0
 12 13  1  0  0  0
 12 14  2  0  0  0
  7 11  1  0  0  0
 13 15  1  0  0  0
 13 16  1  0  0  0
M  CHG 1   7   1
M  END
> <minimizedAffinity>
-7.10827

$$$$
ZINC000020028233


 32 34  0  0  0  0  0  0  0  0999 V2000
   -4.7170   15.3302  -11.7138 N   0  0  0  0  0  0  0  0  0  0  0  0
   -5.5028   16.4318  -11.9656 C   0  0  0  0  0  0  0  0  0  0  0  0
   -5.0091   17.4503  -12.6098 N   0  0  0  0  0  0  0  0  0  0  0  0
   -0.6042   18.0380  -11.4874 H   0  0  0  0  0  0  0  0  0  0  0  0
   -0.6042   18.0380  -11.4874 H   0  0  0  0  0  0  0  0  0  0  0  0
   -0.6042   18.0380  -11.4874 H   0  0  0  0  0  0  0  0  0  0  0  0
   -6.0188   13.4551   -8.8261 C   0  0  0  0  0  0  0  0  0  0  0  0
   -6.1979   12.1993   -9.3869 C   0  0  0  0  0  0  0  0  0  0  0  0
   -5.8844   11.9835  -10.7206 C   0  0  0  0  0  0  0  0  0  0  0  0
   -5.3924   13.0233  -11.4944 C   0  0  0  0  0  0  0  0  0  0  0  0
   -5.2132   14.2808  -10.9338 C   0  0  0  0  0  0  0  0  0  0  0  0
   -5.5318   14.4972   -9.6001 C   0  0  0  0  0  0  0  0  0  0  0  0
   -5.6407   14.7293   -6.8549 C   0  0  0  0  0  0  0  0  0  0  0  0
   -6.3259   13.6655   -7.5191 O   0  0  0  0  0  0  0  0  0  0  0  0
   -6.0598   10.7526  -11.2691 O   0  0  0  0  0  0  0  0  0  0  0  0
   -4.9148    9.8997  -11.3284 C   0  0  0  0  0  0  0  0  0  0  0  0
   -6.8137   16.4570  -11.5353 N   0  0  0  0  0  0  0  0  0  0  0  0
   -0.4447   16.8161  -10.9299 H   0  0  0  0  0  0  0  0  0  0  0  0
   -7.3494   17.6181  -11.0315 C   0  0  0  0  0  0  0  0  0  0  0  0
   -7.6596   17.6825   -9.7553 N   0  0  0  0  0  0  0  0  0  0  0  0
   -8.1839   18.7953   -9.2231 C   0  0  0  0  0  0  0  0  0  0  0  0
   -8.4060   19.9029  -10.0274 C   0  0  0  0  0  0  0  0  0  0  0  0
   -8.0716   19.8244  -11.3881 C   0  0  0  0  0  0  0  0  0  0  0  0
   -8.2518   20.7782  -12.1279 O   0  0  0  0  0  0  0  0  0  0  0  0
   -7.5417   18.6777  -11.8628 N   0  0  0  0  0  0  0  0  0  0  0  0
   -7.5743   11.8745   -7.1213 H   0  0  0  0  0  0  0  0  0  0  0  0
   -8.5243   18.8420   -7.7817 C   0  0  0  0  0  0  0  0  0  0  0  0
   -9.1466   19.9689   -7.2455 C   0  0  0  0  0  0  0  0  0  0  0  0
   -9.4611   20.0066   -5.9025 C   0  0  0  0  0  0  0  0  0  0  0  0
   -9.1598   18.9295   -5.0882 C   0  0  0  0  0  0  0  0  0  0  0  0
   -8.5422   17.8089   -5.6143 C   0  0  0  0  0  0  0  0  0  0  0  0
   -8.2288   17.7569   -6.9572 C   0  0  0  0  0  0  0  0  0  0  0  0
 13 14  1  0  0  0
 14  7  1  0  0  0
  7 12  2  0  0  0
  7  8  1  0  0  0
  8  9  2  0  0  0
  9 15  1  0  0  0
  9 10  1  0  0  0
 15 16  1  0  0  0
 10 11  2  0  0  0
 11  1  1  0  0  0
 11 12  1  0  0  0
  1  2  2  0  0  0
  2  3  1  0  0  0
  2 17  1  0  0  0
 17 19  1  0  0  0
 19 25  1  0  0  0
 19 20  2  0  0  0
 20 21  1  0  0  0
 21 27  1  0  0  0
 21 22  2  0  0  0
 27 32  1  0  0  0
 27 28  2  0  0  0
 28 29  1  0  0  0
 29 30  2  0  0  0
 30 31  1  0  0  0
 31 32  2  0  0  0
 22 23  1  0  0  0
 23 24  2  0  0  0
 23 25  1  0  0  0
  1  4  1  0  0  0
  3  5  1  0  0  0
  3  6  1  0  0  0
 17 18  1  0  0  0
 25 26  1  0  0  0
M  CHG 1   1   1
M  END
> <minimizedAffinity>
-8.69589

$$$$
ZINC000003338239


 26 27  0  0  0  0  0  0  0  0999 V2000
   -5.9546   18.4943  -10.5476 N   0  0  0  0  0  0  0  0  0  0  0  0
  -12.0142   22.3240  -11.5960 H   0  0  0  0  0  0  0  0  0  0  0  0
   -6.7389   18.0526   -9.4796 C   0  0  0  0  0  0  0  0  0  0  0  0
   -6.1897   17.2258   -8.5078 C   0  0  0  0  0  0  0  0  0  0  0  0
   -6.9679   16.7914   -7.4529 C   0  0  0  0  0  0  0  0  0  0  0  0
   -8.2925   17.1782   -7.3635 C   0  0  0  0  0  0  0  0  0  0  0  0
   -8.8424   18.0012   -8.3291 C   0  0  0  0  0  0  0  0  0  0  0  0
   -8.0683   18.4440   -9.3837 C   0  0  0  0  0  0  0  0  0  0  0  0
   -9.2818   16.6216   -6.0158 S   0  0  0  0  0  0  0  0  0  0  0  0
  -10.5819   16.4782   -6.5711 O   0  0  0  0  0  0  0  0  0  0  0  0
   -8.5763   15.4997   -5.5031 O   0  0  0  0  0  0  0  0  0  0  0  0
   -9.2440   17.9936   -4.8296 C   0  0  0  0  0  0  0  0  0  0  0  0
   -8.9879   17.4950   -3.5479 F   0  0  0  0  0  0  0  0  0  0  0  0
   -8.2357   18.8938   -5.1899 F   0  0  0  0  0  0  0  0  0  0  0  0
   -6.0759   17.7558  -12.0249 S   0  0  0  0  0  0  0  0  0  0  0  0
   -4.7889   17.8384  -12.6216 O   0  0  0  0  0  0  0  0  0  0  0  0
   -7.2505   18.2714  -12.6360 O   0  0  0  0  0  0  0  0  0  0  0  0
   -6.8532   13.3611  -11.2676 C   0  0  0  0  0  0  0  0  0  0  0  0
   -7.9060   14.2097  -11.5552 C   0  0  0  0  0  0  0  0  0  0  0  0
   -7.6686   15.5517  -11.7864 C   0  0  0  0  0  0  0  0  0  0  0  0
   -6.3785   16.0453  -11.7295 C   0  0  0  0  0  0  0  0  0  0  0  0
   -5.3260   15.1970  -11.4405 C   0  0  0  0  0  0  0  0  0  0  0  0
   -5.5639   13.8557  -11.2055 C   0  0  0  0  0  0  0  0  0  0  0  0
   -7.1779   11.5060   -9.8782 O   0  0  0  0  0  0  0  0  0  0  0  0
   -7.1074   11.9241  -11.0200 N   0  0  0  0  0  0  0  0  0  0  0  0
   -7.2511   11.1606  -11.9581 O   0  0  0  0  0  0  0  0  0  0  0  0
 24 25  1  0  0  0
 25 26  2  0  0  0
 25 18  1  0  0  0
 18 23  2  0  0  0
 18 19  1  0  0  0
 19 20  2  0  0  0
 20 21  1  0  0  0
 21 15  1  0  0  0
 21 22  2  0  0  0
 15 16  2  0  0  0
 15 17  2  0  0  0
 15  1  1  0  0  0
  1  3  1  0  0  0
  3  8  1  0  0  0
  3  4  2  0  0  0
  4  5  1  0  0  0
  5  6  2  0  0  0
  6  9  1  0  0  0
  6  7  1  0  0  0
  9 10  2  0  0  0
  9 11  2  0  0  0
  9 12  1  0  0  0
 12 13  1  0  0  0
 12 14  1  0  0  0
  7  8  2  0  0  0
 22 23  1  0  0  0
  1  2  1  0  0  0
M  CHG 1  24  -1
M  CHG 1  25   1
M  END
> <minimizedAffinity>
-7.69347

$$$$
ZINC000032933350


 29 31  0  0  0  0  0  0  0  0999 V2000
   -8.5166   17.9834   -7.4342 C   0  0  0  0  0  0  0  0  0  0  0  0
   -7.3846   17.7737   -8.2106 C   0  0  0  0  0  0  0  0  0  0  0  0
   -7.2332   16.5879   -8.9022 C   0  0  0  0  0  0  0  0  0  0  0  0
   -8.2078   15.6102   -8.8226 C   0  0  0  0  0  0  0  0  0  0  0  0
   -9.3361   15.8156   -8.0500 C   0  0  0  0  0  0  0  0  0  0  0  0
   -9.4906   16.9970   -7.3513 C   0  0  0  0  0  0  0  0  0  0  0  0
   -9.5943   20.1742   -8.4908 O   0  0  0  0  0  0  0  0  0  0  0  0
   -9.2691   20.2377   -7.3240 C   0  0  0  0  0  0  0  0  0  0  0  0
   -8.6730   19.1837   -6.7323 N   0  0  0  0  0  0  0  0  0  0  0  0
   -8.4745   20.4464   -8.5401 H   0  0  0  0  0  0  0  0  0  0  0  0
   -9.5373   21.4929   -6.5343 C   0  0  0  0  0  0  0  0  0  0  0  0
   -9.9940   21.1385   -5.2024 O   0  0  0  0  0  0  0  0  0  0  0  0
  -11.0233   21.8412   -4.7040 C   0  0  0  0  0  0  0  0  0  0  0  0
  -12.0807   21.8605   -5.2882 O   0  0  0  0  0  0  0  0  0  0  0  0
  -10.8601   22.6060   -3.4158 C   0  0  0  0  0  0  0  0  0  0  0  0
   -9.4359   22.8355   -2.9062 C   0  0  0  0  0  0  0  0  0  0  0  0
  -10.2352   24.0001   -3.4961 C   0  0  0  0  0  0  0  0  0  0  0  0
   -9.8407   24.4894   -4.8195 N   0  0  0  0  0  0  0  0  0  0  0  0
   -8.6643   24.5133   -5.1343 O   0  0  0  0  0  0  0  0  0  0  0  0
  -10.6892   24.8724   -5.6050 O   0  0  0  0  0  0  0  0  0  0  0  0
   -8.0113   14.0988   -9.7070 S   0  0  0  0  0  0  0  0  0  0  0  0
   -7.2324   13.2473   -8.8781 O   0  0  0  0  0  0  0  0  0  0  0  0
   -9.3003   13.7463  -10.1903 O   0  0  0  0  0  0  0  0  0  0  0  0
   -7.0859   14.4280  -11.0403 N   0  0  0  0  0  0  0  0  0  0  0  0
   -7.6755   15.0485  -12.2373 C   0  0  0  0  0  0  0  0  0  0  0  0
   -6.8114   16.2509  -12.6339 C   0  0  0  0  0  0  0  0  0  0  0  0
   -5.4475   15.8357  -12.7405 O   0  0  0  0  0  0  0  0  0  0  0  0
   -4.8841   15.3571  -11.5169 C   0  0  0  0  0  0  0  0  0  0  0  0
   -5.6484   14.1140  -11.0608 C   0  0  0  0  0  0  0  0  0  0  0  0
  7  8  2  0  0  0
  8 11  1  0  0  0
  8  9  1  0  0  0
 11 12  1  0  0  0
 12 13  1  0  0  0
 13 14  2  0  0  0
 13 15  1  0  0  0
 15 17  1  0  0  0
 15 16  1  0  0  0
 16 17  1  0  0  0
 17 18  1  0  0  0
 18 19  1  0  0  0
 18 20  2  0  0  0
  9  1  1  0  0  0
  1  6  1  0  0  0
  1  2  2  0  0  0
  2  3  1  0  0  0
  3  4  2  0  0  0
  4 21  1  0  0  0
  4  5  1  0  0  0
 21 22  2  0  0  0
 21 23  2  0  0  0
 21 24  1  0  0  0
 24 29  1  0  0  0
 24 25  1  0  0  0
 25 26  1  0  0  0
 26 27  1  0  0  0
 27 28  1  0  0  0
 28 29  1  0  0  0
  5  6  2  0  0  0
  9 10  1  0  0  0
M  CHG 1  18   1
M  CHG 1  19  -1
M  END
> <minimizedAffinity>
-7.72676

$$$$
ZINC000006062210


 23 24  0  0  0  0  0  0  0  0999 V2000
   -6.7574   18.0950  -12.2453 C   0  0  0  0  0  0  0  0  0  0  0  0
   -5.3053   16.4229  -13.0608 O   0  0  0  0  0  0  0  0  0  0  0  0
   -6.3297   16.6658  -12.4587 C   0  0  0  0  0  0  0  0  0  0  0  0
   -7.0885   15.6575  -11.9853 N   0  0  0  0  0  0  0  0  0  0  0  0
   -5.3101   16.4217  -13.0602 H   0  0  0  0  0  0  0  0  0  0  0  0
   -6.6758   14.2681  -12.1980 C   0  0  0  0  0  0  0  0  0  0  0  0
   -5.4835   13.9367  -11.2834 C   0  0  0  0  0  0  0  0  0  0  0  0
   -5.3179   12.3954  -11.3115 C   0  0  0  0  0  0  0  0  0  0  0  0
   -7.0500   11.8061  -11.2035 S   0  0  0  0  0  0  0  0  0  0  0  0
   -7.2440   10.7424  -12.1255 O   0  0  0  0  0  0  0  0  0  0  0  0
   -7.4043   11.6327   -9.8383 O   0  0  0  0  0  0  0  0  0  0  0  0
   -7.8415   13.3218  -11.8483 C   0  0  0  0  0  0  0  0  0  0  0  0
   -6.2923   18.5463  -10.9717 O   0  0  0  0  0  0  0  0  0  0  0  0
   -7.0949   18.3065   -9.9011 C   0  0  0  0  0  0  0  0  0  0  0  0
   -6.7778   17.2941   -9.0082 C   0  0  0  0  0  0  0  0  0  0  0  0
   -7.5949   17.0526   -7.9203 C   0  0  0  0  0  0  0  0  0  0  0  0
   -8.7283   17.8186   -7.7215 C   0  0  0  0  0  0  0  0  0  0  0  0
   -9.0473   18.8293   -8.6098 C   0  0  0  0  0  0  0  0  0  0  0  0
   -8.2307   19.0787   -9.6967 C   0  0  0  0  0  0  0  0  0  0  0  0
   -8.6310   20.3479  -10.8114 Cl  0  0  0  0  0  0  0  0  0  0  0  0
   -9.6016   17.5570   -6.5556 N   0  0  0  0  0  0  0  0  0  0  0  0
  -10.3705   16.6124   -6.5704 O   0  0  0  0  0  0  0  0  0  0  0  0
   -9.5514   18.2861   -5.5813 O   0  0  0  0  0  0  0  0  0  0  0  0
  2  3  2  0  0  0
  3  1  1  0  0  0
  3  4  1  0  0  0
  1 13  1  0  0  0
 13 14  1  0  0  0
 14 19  1  0  0  0
 14 15  2  0  0  0
 15 16  1  0  0  0
 16 17  2  0  0  0
 17 21  1  0  0  0
 17 18  1  0  0  0
 21 22  1  0  0  0
 21 23  2  0  0  0
 18 19  2  0  0  0
 19 20  1  0  0  0
  4  6  1  0  0  0
  6 12  1  0  0  0
  6  7  1  0  0  0
  7  8  1  0  0  0
  8  9  1  0  0  0
  9 10  2  0  0  0
  9 11  2  0  0  0
  9 12  1  0  0  0
  4  5  1  0  0  0
M  CHG 1  21   1
M  CHG 1  22  -1
M  END
> <minimizedAffinity>
-7.88107

$$$$
ZINC000188495944


 22 23  0  0  0  0  0  0  0  0999 V2000
   -8.3909   18.9024   -7.9027 N   0  0  0  0  0  0  0  0  0  0  0  0
   -7.1430   17.6826   -9.5731 H   0  0  0  0  0  0  0  0  0  0  0  0
   -6.3774   16.9659   -8.4426 C   0  0  0  0  0  0  0  0  0  0  0  0
   -6.9605   17.8346   -9.5273 C   0  0  0  0  0  0  0  0  0  0  0  0
   -6.5214   17.7020  -10.8297 C   0  0  0  0  0  0  0  0  0  0  0  0
   -7.0563   18.4985  -11.8259 C   0  0  0  0  0  0  0  0  0  0  0  0
   -8.0322   19.4294  -11.5217 C   0  0  0  0  0  0  0  0  0  0  0  0
   -8.4757   19.5675  -10.2210 C   0  0  0  0  0  0  0  0  0  0  0  0
   -7.9445   18.7657   -9.2190 C   0  0  0  0  0  0  0  0  0  0  0  0
   -6.5832   18.3535  -13.2208 N   0  0  0  0  0  0  0  0  0  0  0  0
   -6.7612   19.2543  -14.0210 O   0  0  0  0  0  0  0  0  0  0  0  0
   -6.0161   17.3332  -13.5686 O   0  0  0  0  0  0  0  0  0  0  0  0
   -9.2229   20.0481   -7.5265 C   0  0  0  0  0  0  0  0  0  0  0  0
   -9.2659   20.1685   -6.0019 C   0  0  0  0  0  0  0  0  0  0  0  0
   -9.5805   21.5540   -5.6288 N   0  0  0  0  0  0  0  0  0  0  0  0
   -9.2158   22.4448   -6.7025 C   0  0  0  0  0  0  0  0  0  0  0  0
   -8.7045   23.8015   -6.1720 C   0  0  0  0  0  0  0  0  0  0  0  0
   -9.5426   24.2847   -4.9684 C   0  0  0  0  0  0  0  0  0  0  0  0
  -10.9186   24.0722   -5.1219 O   0  0  0  0  0  0  0  0  0  0  0  0
  -11.3734   22.8249   -4.5424 C   0  0  0  0  0  0  0  0  0  0  0  0
  -11.0297   21.6944   -5.4047 C   0  0  0  0  0  0  0  0  0  0  0  0
   -9.1486   15.5138   -4.6287 H   0  0  0  0  0  0  0  0  0  0  0  0
  3  4  1  0  0  0
  4  9  2  0  0  0
  4  5  1  0  0  0
  5  6  2  0  0  0
  6 10  1  0  0  0
  6  7  1  0  0  0
 10 11  1  0  0  0
 10 12  2  0  0  0
  7  8  2  0  0  0
  8  9  1  0  0  0
  9  1  1  0  0  0
  1 13  1  0  0  0
 13 14  1  0  0  0
 14 15  1  0  0  0
 15 21  1  0  0  0
 15 16  1  0  0  0
 16 17  1  0  0  0
 17 18  1  0  0  0
 18 19  1  0  0  0
 19 20  1  0  0  0
 20 21  1  0  0  0
  1  2  1  0  0  0
 15 22  1  0  0  0
M  CHG 1  10   1
M  CHG 1  11  -1
M  CHG 1  15   1
M  END
> <minimizedAffinity>
-7.08598

$$$$
ZINC000116278446


 21 23  0  0  0  0  0  0  0  0999 V2000
   -8.1750   18.5400   -8.2422 C   0  0  0  0  0  0  0  0  0  0  0  0
   -8.8892   17.1918   -8.3739 C   0  0  0  0  0  0  0  0  0  0  0  0
   -7.9088   16.1529   -8.9226 C   0  0  0  0  0  0  0  0  0  0  0  0
   -7.4225   16.5813  -10.2396 N   0  0  0  0  0  0  0  0  0  0  0  0
   -6.6746   17.8376  -10.1099 C   0  0  0  0  0  0  0  0  0  0  0  0
   -7.6075   18.9413   -9.6069 C   0  0  0  0  0  0  0  0  0  0  0  0
  -10.6994   18.5212   -6.0561 H   0  0  0  0  0  0  0  0  0  0  0  0
   -6.5415   15.5455  -10.7953 C   0  0  0  0  0  0  0  0  0  0  0  0
   -5.7893   14.8098   -9.6622 C   0  0  0  0  0  0  0  0  0  0  0  0
   -5.7483   13.3620  -10.1997 C   0  0  0  0  0  0  0  0  0  0  0  0
   -6.8940   13.2496  -11.1100 N   0  0  0  0  0  0  0  0  0  0  0  0
   -7.4613   11.9805  -11.5722 C   0  0  0  0  0  0  0  0  0  0  0  0
   -7.3560   14.4627  -11.4681 C   0  0  0  0  0  0  0  0  0  0  0  0
   -8.2901   14.6570  -12.2169 O   0  0  0  0  0  0  0  0  0  0  0  0
   -9.1698   19.6019   -7.7694 C   0  0  0  0  0  0  0  0  0  0  0  0
  -10.5562   21.7370   -6.0033 C   0  0  0  0  0  0  0  0  0  0  0  0
   -9.7729   20.6014   -5.5102 N   0  0  0  0  0  0  0  0  0  0  0  0
   -9.5263   20.2927   -4.1997 C   0  0  0  0  0  0  0  0  0  0  0  0
   -8.7717   19.1773   -4.1974 C   0  0  0  0  0  0  0  0  0  0  0  0
   -8.5631   18.8149   -5.4719 N   0  0  0  0  0  0  0  0  0  0  0  0
   -9.1641   19.6605   -6.2636 C   0  0  0  0  0  0  0  0  0  0  0  0
 16 17  1  0  0  0
 17 21  1  0  0  0
 17 18  1  0  0  0
 18 19  2  0  0  0
 19 20  1  0  0  0
 20 21  2  0  0  0
 21 15  1  0  0  0
 15  1  1  0  0  0
  1  6  1  0  0  0
  1  2  1  0  0  0
  2  3  1  0  0  0
  3  4  1  0  0  0
  4  8  1  0  0  0
  4  5  1  0  0  0
  8 13  1  0  0  0
  8  9  1  0  0  0
  9 10  1  0  0  0
 10 11  1  0  0  0
 11 12  1  0  0  0
 11 13  1  0  0  0
 13 14  2  0  0  0
  5  6  1  0  0  0
  4  7  1  0  0  0
M  CHG 1   4   1
M  END
> <minimizedAffinity>
-6.49987

$$$$
