
     RDKit          3D

 80 84  0  0  0  0  0  0  0  0999 V2000
   -3.2333   -4.0652   -1.0613 C   0  0  0  0  0  0  0  0  0  0  0  0
   -2.2882   -3.5716    0.0303 C   0  0  0  0  0  0  0  0  0  0  0  0
   -2.8665   -3.6147    1.4416 C   0  0  0  0  0  0  0  0  0  0  0  0
   -1.6221   -2.3508   -0.3008 O   0  0  0  0  0  0  0  0  0  0  0  0
   -2.2123   -1.1140   -0.2851 C   0  0  0  0  0  0  0  0  0  0  0  0
   -3.5728   -0.8568   -0.1115 C   0  0  0  0  0  0  0  0  0  0  0  0
   -4.0888    0.4578   -0.1055 C   0  0  0  0  0  0  0  0  0  0  0  0
   -5.5836    0.6827    0.1021 C   0  0  0  0  0  0  0  0  0  0  0  0
   -6.3765    0.4442   -1.1955 C   0  0  0  0  0  0  0  0  0  0  0  0
   -7.7748   -0.1291   -0.9352 C   0  0  0  0  0  0  0  0  0  0  0  0
   -8.4512    0.4377    0.2341 N   0  0  0  0  0  0  0  0  0  0  0  0
   -8.8790    1.8173    0.0046 C   0  0  0  0  0  0  0  0  0  0  0  0
   -7.6603    0.3082    1.4698 C   0  0  0  0  0  0  0  0  0  0  0  0
   -6.1964   -0.1129    1.2645 C   0  0  0  0  0  0  0  0  0  0  0  0
   -3.2012    1.5285   -0.3352 C   0  0  0  0  0  0  0  0  0  0  0  0
   -3.6471    2.9680   -0.3681 C   0  0  0  0  0  0  0  0  0  0  0  0
   -1.8302    1.2617   -0.5128 C   0  0  0  0  0  0  0  0  0  0  0  0
   -1.3153   -0.0393   -0.4757 C   0  0  0  0  0  0  0  0  0  0  0  0
    0.0493   -0.3384   -0.6566 N   0  0  0  0  0  0  0  0  0  0  0  0
    1.1967    0.4246   -0.8530 C   0  0  0  0  0  0  0  0  0  0  0  0
    2.3551   -0.2795   -0.6168 N   0  0  0  0  0  0  0  0  0  0  0  0
    3.5837    0.2919   -0.7631 C   0  0  0  0  0  0  0  0  0  0  0  0
    4.7113   -0.4536   -0.4148 N   0  0  0  0  0  0  0  0  0  0  0  0
    6.0028   -0.4821   -0.9713 C   0  0  0  0  0  0  0  0  0  0  0  0
    6.2269   -0.1487   -2.3152 C   0  0  0  0  0  0  0  0  0  0  0  0
    7.5094   -0.1960   -2.8702 C   0  0  0  0  0  0  0  0  0  0  0  0
    8.5946   -0.6005   -2.0991 C   0  0  0  0  0  0  0  0  0  0  0  0
    8.4002   -0.9504   -0.7641 C   0  0  0  0  0  0  0  0  0  0  0  0
    7.1148   -0.8846   -0.2072 C   0  0  0  0  0  0  0  0  0  0  0  0
    6.9081   -1.3360    1.5057 S   0  0  0  0  0  6  0  0  0  0  0  0
    5.8208   -2.3012    1.5338 O   0  0  0  0  0  0  0  0  0  0  0  0
    8.2174   -1.6874    2.0308 O   0  0  0  0  0  0  0  0  0  0  0  0
    6.3757    0.1697    2.3393 C   0  0  0  0  0  0  0  0  0  0  0  0
    6.1287   -0.1149    3.8205 C   0  0  0  0  0  0  0  0  0  0  0  0
    7.3735    1.3110    2.1699 C   0  0  0  0  0  0  0  0  0  0  0  0
    3.5021    1.6272   -1.1494 C   0  0  0  0  0  0  0  0  0  0  0  0
    4.4981    2.5547   -1.3130 C   0  0  0  0  0  0  0  0  0  0  0  0
    3.8478    3.7065   -1.6685 N   0  0  0  0  0  0  0  0  0  0  0  0
    2.5077    3.5923   -1.7115 N   0  0  0  0  0  0  0  0  0  0  0  0
    2.2883    2.3151   -1.3811 C   0  0  0  0  0  0  0  0  0  0  0  0
    1.0936    1.7156   -1.2412 N   0  0  0  0  0  0  0  0  0  0  0  0
   -2.6955   -4.1580   -2.0110 H   0  0  0  0  0  0  0  0  0  0  0  0
   -3.6514   -5.0442   -0.8032 H   0  0  0  0  0  0  0  0  0  0  0  0
   -4.0659   -3.3844   -1.2476 H   0  0  0  0  0  0  0  0  0  0  0  0
   -1.4668   -4.2990    0.0473 H   0  0  0  0  0  0  0  0  0  0  0  0
   -3.0352   -4.6511    1.7539 H   0  0  0  0  0  0  0  0  0  0  0  0
   -3.8275   -3.1061    1.5250 H   0  0  0  0  0  0  0  0  0  0  0  0
   -2.1831   -3.1476    2.1574 H   0  0  0  0  0  0  0  0  0  0  0  0
   -4.2707   -1.6734    0.0073 H   0  0  0  0  0  0  0  0  0  0  0  0
   -5.7278    1.7316    0.3849 H   0  0  0  0  0  0  0  0  0  0  0  0
   -6.4559    1.3930   -1.7434 H   0  0  0  0  0  0  0  0  0  0  0  0
   -5.8484   -0.2426   -1.8673 H   0  0  0  0  0  0  0  0  0  0  0  0
   -8.3952   -0.0098   -1.8335 H   0  0  0  0  0  0  0  0  0  0  0  0
   -7.6948   -1.2154   -0.7944 H   0  0  0  0  0  0  0  0  0  0  0  0
   -9.4916    1.8878   -0.9009 H   0  0  0  0  0  0  0  0  0  0  0  0
   -9.5081    2.1643    0.8325 H   0  0  0  0  0  0  0  0  0  0  0  0
   -8.0338    2.5086   -0.1007 H   0  0  0  0  0  0  0  0  0  0  0  0
   -7.6805    1.2377    2.0529 H   0  0  0  0  0  0  0  0  0  0  0  0
   -8.1469   -0.4411    2.1054 H   0  0  0  0  0  0  0  0  0  0  0  0
   -5.6357    0.0572    2.1909 H   0  0  0  0  0  0  0  0  0  0  0  0
   -6.1578   -1.1904    1.0752 H   0  0  0  0  0  0  0  0  0  0  0  0
   -3.8290    3.3256    0.6479 H   0  0  0  0  0  0  0  0  0  0  0  0
   -2.8919    3.6122   -0.8276 H   0  0  0  0  0  0  0  0  0  0  0  0
   -4.5574    3.0798   -0.9652 H   0  0  0  0  0  0  0  0  0  0  0  0
   -1.1605    2.1043   -0.6690 H   0  0  0  0  0  0  0  0  0  0  0  0
    0.2885   -1.2861   -0.3971 H   0  0  0  0  0  0  0  0  0  0  0  0
    4.4137   -1.3732   -0.0732 H   0  0  0  0  0  0  0  0  0  0  0  0
    5.3983    0.1327   -2.9593 H   0  0  0  0  0  0  0  0  0  0  0  0
    7.6566    0.0586   -3.9177 H   0  0  0  0  0  0  0  0  0  0  0  0
    9.5897   -0.6540   -2.5365 H   0  0  0  0  0  0  0  0  0  0  0  0
    9.2529   -1.2769   -0.1688 H   0  0  0  0  0  0  0  0  0  0  0  0
    5.4189    0.4641    1.8947 H   0  0  0  0  0  0  0  0  0  0  0  0
    7.0264   -0.5086    4.3130 H   0  0  0  0  0  0  0  0  0  0  0  0
    5.8205    0.7955    4.3482 H   0  0  0  0  0  0  0  0  0  0  0  0
    5.3304   -0.8537    3.9420 H   0  0  0  0  0  0  0  0  0  0  0  0
    8.3499    1.0637    2.6047 H   0  0  0  0  0  0  0  0  0  0  0  0
    7.0038    2.2180    2.6604 H   0  0  0  0  0  0  0  0  0  0  0  0
    7.5273    1.5560    1.1151 H   0  0  0  0  0  0  0  0  0  0  0  0
    5.5743    2.5261   -1.2194 H   0  0  0  0  0  0  0  0  0  0  0  0
    4.2533    4.6116   -1.8869 H   0  0  0  0  0  0  0  0  0  0  0  0
  1  2  1  0
  2  3  1  0
  2  4  1  0
  4  5  1  0
  5  6  2  0
  6  7  1  0
  7  8  1  0
  8  9  1  0
  9 10  1  0
 10 11  1  0
 11 12  1  0
 11 13  1  0
 13 14  1  0
  7 15  2  0
 15 16  1  0
 15 17  1  0
 17 18  2  0
 18 19  1  0
 19 20  1  0
 20 21  1  0
 21 22  2  0
 22 23  1  0
 23 24  1  0
 24 25  2  0
 25 26  1  0
 26 27  2  0
 27 28  1  0
 28 29  2  0
 29 30  1  0
 30 31  2  0
 30 32  2  0
 30 33  1  0
 33 34  1  0
 33 35  1  0
 22 36  1  0
 36 37  2  0
 37 38  1  0
 38 39  1  0
 39 40  2  0
 40 41  1  0
 18  5  1  0
 14  8  1  0
 41 20  2  0
 29 24  1  0
 40 36  1  0
  1 42  1  0
  1 43  1  0
  1 44  1  0
  2 45  1  0
  3 46  1  0
  3 47  1  0
  3 48  1  0
  6 49  1  0
  8 50  1  0
  9 51  1  0
  9 52  1  0
 10 53  1  0
 10 54  1  0
 12 55  1  0
 12 56  1  0
 12 57  1  0
 13 58  1  0
 13 59  1  0
 14 60  1  0
 14 61  1  0
 16 62  1  0
 16 63  1  0
 16 64  1  0
 17 65  1  0
 19 66  1  0
 23 67  1  0
 25 68  1  0
 26 69  1  0
 27 70  1  0
 28 71  1  0
 33 72  1  0
 34 73  1  0
 34 74  1  0
 34 75  1  0
 35 76  1  0
 35 77  1  0
 35 78  1  0
 37 79  1  0
 38 80  1  0
M  END
$$$$
