
     RDKit          3D

 80 84  0  0  0  0  0  0  0  0999 V2000
   -4.2216    5.1243    1.4571 C   0  0  0  0  0  0  0  0  0  0  0  0
   -3.6098    4.0245    0.5928 C   0  0  0  0  0  0  0  0  0  0  0  0
   -2.5256    4.6138   -0.3093 C   0  0  0  0  0  0  0  0  0  0  0  0
   -3.0405    3.0623    1.4977 O   0  0  0  0  0  0  0  0  0  0  0  0
   -2.8228    1.8307    0.9204 C   0  0  0  0  0  0  0  0  0  0  0  0
   -3.8916    1.0537    0.4701 C   0  0  0  0  0  0  0  0  0  0  0  0
   -3.6827   -0.2117   -0.1103 C   0  0  0  0  0  0  0  0  0  0  0  0
   -4.9254   -0.9743   -0.5546 C   0  0  0  0  0  0  0  0  0  0  0  0
   -5.0203   -1.2010   -2.0682 C   0  0  0  0  0  0  0  0  0  0  0  0
   -6.3617   -1.8643   -2.4047 C   0  0  0  0  0  0  0  0  0  0  0  0
   -6.6693   -3.0732   -1.6140 N   0  0  0  0  0  0  0  0  0  0  0  0
   -7.9883   -2.9874   -0.9934 C   0  0  0  0  0  0  0  0  0  0  0  0
   -5.6249   -3.4231   -0.6492 C   0  0  0  0  0  0  0  0  0  0  0  0
   -5.1782   -2.2643    0.2467 C   0  0  0  0  0  0  0  0  0  0  0  0
   -2.3528   -0.6759   -0.2252 C   0  0  0  0  0  0  0  0  0  0  0  0
   -1.9699   -1.9560   -0.9184 C   0  0  0  0  0  0  0  0  0  0  0  0
   -1.2894    0.1168    0.2756 C   0  0  0  0  0  0  0  0  0  0  0  0
   -1.5034    1.3553    0.8832 C   0  0  0  0  0  0  0  0  0  0  0  0
   -0.4900    2.1716    1.4035 N   0  0  0  0  0  0  0  0  0  0  0  0
    0.8592    2.0001    1.7052 C   0  0  0  0  0  0  0  0  0  0  0  0
    1.5380    0.9045    1.2373 N   0  0  0  0  0  0  0  0  0  0  0  0
    2.8562    0.6805    1.5343 C   0  0  0  0  0  0  0  0  0  0  0  0
    3.4564   -0.4741    0.9798 N   0  0  0  0  0  0  0  0  0  0  0  0
    4.8156   -0.8357    1.0377 C   0  0  0  0  0  0  0  0  0  0  0  0
    5.3203   -1.3092    2.2627 C   0  0  0  0  0  0  0  0  0  0  0  0
    6.6807   -1.5600    2.4425 C   0  0  0  0  0  0  0  0  0  0  0  0
    7.5745   -1.3124    1.4055 C   0  0  0  0  0  0  0  0  0  0  0  0
    7.0997   -0.8511    0.1786 C   0  0  0  0  0  0  0  0  0  0  0  0
    5.7240   -0.6560   -0.0203 C   0  0  0  0  0  0  0  0  0  0  0  0
    5.1861   -0.1606   -1.6474 S   0  0  0  0  0  6  0  0  0  0  0  0
    3.7358   -0.0639   -1.6155 O   0  0  0  0  0  0  0  0  0  0  0  0
    5.9837    0.9982   -2.0034 O   0  0  0  0  0  0  0  0  0  0  0  0
    5.5613   -1.5172   -2.7665 C   0  0  0  0  0  0  0  0  0  0  0  0
    5.3224   -2.8891   -2.1388 C   0  0  0  0  0  0  0  0  0  0  0  0
    6.9536   -1.4183   -3.3809 C   0  0  0  0  0  0  0  0  0  0  0  0
    3.3910    1.7012    2.3261 C   0  0  0  0  0  0  0  0  0  0  0  0
    4.6684    1.8980    2.7850 C   0  0  0  0  0  0  0  0  0  0  0  0
    4.6195    3.0696    3.4862 N   0  0  0  0  0  0  0  0  0  0  0  0
    3.4059    3.6494    3.5043 N   0  0  0  0  0  0  0  0  0  0  0  0
    2.6513    2.8235    2.7773 C   0  0  0  0  0  0  0  0  0  0  0  0
    1.3521    2.9971    2.4785 N   0  0  0  0  0  0  0  0  0  0  0  0
   -3.4586    5.5997    2.0859 H   0  0  0  0  0  0  0  0  0  0  0  0
   -4.7013    5.8994    0.8469 H   0  0  0  0  0  0  0  0  0  0  0  0
   -4.9736    4.6938    2.1297 H   0  0  0  0  0  0  0  0  0  0  0  0
   -4.4114    3.5866   -0.0174 H   0  0  0  0  0  0  0  0  0  0  0  0
   -1.6592    4.9435    0.2739 H   0  0  0  0  0  0  0  0  0  0  0  0
   -2.9088    5.4606   -0.8877 H   0  0  0  0  0  0  0  0  0  0  0  0
   -2.1642    3.8585   -1.0208 H   0  0  0  0  0  0  0  0  0  0  0  0
   -4.9000    1.4380    0.5863 H   0  0  0  0  0  0  0  0  0  0  0  0
   -5.7876   -0.3314   -0.3196 H   0  0  0  0  0  0  0  0  0  0  0  0
   -4.9411   -0.2452   -2.5996 H   0  0  0  0  0  0  0  0  0  0  0  0
   -4.2055   -1.8300   -2.4374 H   0  0  0  0  0  0  0  0  0  0  0  0
   -7.1527   -1.1072   -2.2909 H   0  0  0  0  0  0  0  0  0  0  0  0
   -6.3654   -2.1354   -3.4680 H   0  0  0  0  0  0  0  0  0  0  0  0
   -8.2294   -3.9082   -0.4489 H   0  0  0  0  0  0  0  0  0  0  0  0
   -8.7647   -2.8728   -1.7602 H   0  0  0  0  0  0  0  0  0  0  0  0
   -8.0659   -2.1439   -0.2989 H   0  0  0  0  0  0  0  0  0  0  0  0
   -4.7633   -3.7914   -1.2163 H   0  0  0  0  0  0  0  0  0  0  0  0
   -5.9363   -4.2717   -0.0298 H   0  0  0  0  0  0  0  0  0  0  0  0
   -5.9495   -2.0658    1.0005 H   0  0  0  0  0  0  0  0  0  0  0  0
   -4.2950   -2.5748    0.8156 H   0  0  0  0  0  0  0  0  0  0  0  0
   -1.0085   -2.3301   -0.5498 H   0  0  0  0  0  0  0  0  0  0  0  0
   -2.6935   -2.7538   -0.7472 H   0  0  0  0  0  0  0  0  0  0  0  0
   -1.8780   -1.7776   -1.9945 H   0  0  0  0  0  0  0  0  0  0  0  0
   -0.2736   -0.2589    0.1748 H   0  0  0  0  0  0  0  0  0  0  0  0
   -0.8459    2.9695    1.9181 H   0  0  0  0  0  0  0  0  0  0  0  0
    3.0598   -0.5240    0.0302 H   0  0  0  0  0  0  0  0  0  0  0  0
    4.6374   -1.4670    3.0964 H   0  0  0  0  0  0  0  0  0  0  0  0
    7.0438   -1.9219    3.4021 H   0  0  0  0  0  0  0  0  0  0  0  0
    8.6386   -1.4746    1.5541 H   0  0  0  0  0  0  0  0  0  0  0  0
    7.8152   -0.6322   -0.6104 H   0  0  0  0  0  0  0  0  0  0  0  0
    4.8375   -1.3957   -3.5817 H   0  0  0  0  0  0  0  0  0  0  0  0
    5.3167   -3.6671   -2.9079 H   0  0  0  0  0  0  0  0  0  0  0  0
    6.1145   -3.1413   -1.4303 H   0  0  0  0  0  0  0  0  0  0  0  0
    4.3703   -2.9225   -1.6063 H   0  0  0  0  0  0  0  0  0  0  0  0
    7.1049   -2.2134   -4.1193 H   0  0  0  0  0  0  0  0  0  0  0  0
    7.0946   -0.4616   -3.8924 H   0  0  0  0  0  0  0  0  0  0  0  0
    7.7415   -1.5149   -2.6323 H   0  0  0  0  0  0  0  0  0  0  0  0
    5.5953    1.3557    2.6860 H   0  0  0  0  0  0  0  0  0  0  0  0
    5.3756    3.5326    3.9753 H   0  0  0  0  0  0  0  0  0  0  0  0
  1  2  1  0
  2  3  1  0
  2  4  1  0
  4  5  1  0
  5  6  2  0
  6  7  1  0
  7  8  1  0
  8  9  1  0
  9 10  1  0
 10 11  1  0
 11 12  1  0
 11 13  1  0
 13 14  1  0
  7 15  2  0
 15 16  1  0
 15 17  1  0
 17 18  2  0
 18 19  1  0
 19 20  1  0
 20 21  1  0
 21 22  2  0
 22 23  1  0
 23 24  1  0
 24 25  2  0
 25 26  1  0
 26 27  2  0
 27 28  1  0
 28 29  2  0
 29 30  1  0
 30 31  2  0
 30 32  2  0
 30 33  1  0
 33 34  1  0
 33 35  1  0
 22 36  1  0
 36 37  2  0
 37 38  1  0
 38 39  1  0
 39 40  2  0
 40 41  1  0
 18  5  1  0
 14  8  1  0
 41 20  2  0
 29 24  1  0
 40 36  1  0
  1 42  1  0
  1 43  1  0
  1 44  1  0
  2 45  1  0
  3 46  1  0
  3 47  1  0
  3 48  1  0
  6 49  1  0
  8 50  1  0
  9 51  1  0
  9 52  1  0
 10 53  1  0
 10 54  1  0
 12 55  1  0
 12 56  1  0
 12 57  1  0
 13 58  1  0
 13 59  1  0
 14 60  1  0
 14 61  1  0
 16 62  1  0
 16 63  1  0
 16 64  1  0
 17 65  1  0
 19 66  1  0
 23 67  1  0
 25 68  1  0
 26 69  1  0
 27 70  1  0
 28 71  1  0
 33 72  1  0
 34 73  1  0
 34 74  1  0
 34 75  1  0
 35 76  1  0
 35 77  1  0
 35 78  1  0
 37 79  1  0
 38 80  1  0
M  END
$$$$
