Molecule_0


 44 48  0  0  0  0  0  0  0  0999 V2000
   -8.3322   19.4964  -10.0379 C   0  0  0  0  0  0  0  0  0  0  0  0
   -7.4266   18.4639  -10.0441 N   0  0  0  0  0  0  0  0  0  0  0  0
   -6.7429   18.1069  -11.1753 C   0  0  0  0  0  0  0  0  0  0  0  0
   -7.0900   18.9032  -12.2697 C   0  0  0  0  0  0  0  0  0  0  0  0
   -6.6980   18.8325  -13.5824 C   0  0  0  0  0  0  0  0  0  0  0  0
   -7.3846   19.8358  -14.2152 N   0  0  0  0  0  0  0  0  0  0  0  0
   -8.1935   20.5409  -13.4082 N   0  0  0  0  0  0  0  0  0  0  0  0
   -8.0358   19.9547  -12.2165 C   0  0  0  0  0  0  0  0  0  0  0  0
   -8.6867   20.2766  -11.0863 N   0  0  0  0  0  0  0  0  0  0  0  0
   -7.3521   20.0864  -15.1975 H   0  0  0  0  0  0  0  0  0  0  0  0
   -9.0182   19.8202   -8.8714 N   0  0  0  0  0  0  0  0  0  0  0  0
   -9.4863   20.7168   -8.9816 H   0  0  0  0  0  0  0  0  0  0  0  0
   -9.1725   20.2777   -6.5163 C   0  0  0  0  0  0  0  0  0  0  0  0
   -9.1501   19.8625   -5.1829 C   0  0  0  0  0  0  0  0  0  0  0  0
   -9.0259   18.5004   -4.8131 C   0  0  0  0  0  0  0  0  0  0  0  0
   -8.9721   17.5539   -5.8530 C   0  0  0  0  0  0  0  0  0  0  0  0
   -8.8833   16.0725   -5.6382 C   0  0  0  0  0  0  0  0  0  0  0  0
   -8.9774   17.9941   -7.2020 C   0  0  0  0  0  0  0  0  0  0  0  0
   -9.0393   19.3438   -7.5531 C   0  0  0  0  0  0  0  0  0  0  0  0
   -8.9676   18.2403   -3.3035 C   0  0  0  0  0  0  0  0  0  0  0  0
   -8.1427   19.2895   -2.5433 C   0  0  0  0  0  0  0  0  0  0  0  0
   -8.9826   20.2923   -1.7605 C   0  0  0  0  0  0  0  0  0  0  0  0
   -9.9288   19.5961   -0.8829 N   0  0  0  0  0  0  0  0  0  0  0  0
  -10.6022   20.5520   -0.0039 C   0  0  0  0  0  0  0  0  0  0  0  0
  -10.9082   18.8494   -1.6770 C   0  0  0  0  0  0  0  0  0  0  0  0
  -10.2461   17.7957   -2.5671 C   0  0  0  0  0  0  0  0  0  0  0  0
   -9.2215   21.5991   -6.8939 O   0  0  0  0  0  0  0  0  0  0  0  0
   -8.6091   23.8205   -6.2022 C   0  0  0  0  0  0  0  0  0  0  0  0
   -9.3817   22.5539   -5.8335 C   0  0  0  0  0  0  0  0  0  0  0  0
  -10.8715   22.8703   -5.7281 C   0  0  0  0  0  0  0  0  0  0  0  0
   -5.8772   16.9945  -11.0912 N   0  0  0  0  0  0  0  0  0  0  0  0
   -4.9466   17.3999  -11.2369 H   0  0  0  0  0  0  0  0  0  0  0  0
   -5.9047   15.9738  -10.1193 C   0  0  0  0  0  0  0  0  0  0  0  0
   -5.9927   16.3584   -8.7675 C   0  0  0  0  0  0  0  0  0  0  0  0
   -5.9019   15.4260   -7.7329 C   0  0  0  0  0  0  0  0  0  0  0  0
   -5.6929   14.0840   -8.0295 C   0  0  0  0  0  0  0  0  0  0  0  0
   -5.6084   13.6730   -9.3591 C   0  0  0  0  0  0  0  0  0  0  0  0
   -5.7499   14.6042  -10.4004 C   0  0  0  0  0  0  0  0  0  0  0  0
   -5.6837   13.9854  -12.0722 S   0  0  0  0  0  0  0  0  0  0  0  0
   -5.4832   15.1280  -12.9506 O   0  0  0  0  0  0  0  0  0  0  0  0
   -4.7177   12.8982  -12.0665 O   0  0  0  0  0  0  0  0  0  0  0  0
   -7.3169   13.3366  -12.4694 C   0  0  0  0  0  0  0  0  0  0  0  0
   -7.5896   11.9901  -11.8073 C   0  0  0  0  0  0  0  0  0  0  0  0
   -8.4398   14.3367  -12.2099 C   0  0  0  0  0  0  0  0  0  0  0  0
 28 29  1  0  0  0
 29 30  1  0  0  0
 29 27  1  0  0  0
 27 13  1  0  0  0
 13 14  2  0  0  0
 14 15  1  0  0  0
 15 20  1  0  0  0
 20 21  1  0  0  0
 21 22  1  0  0  0
 22 23  1  0  0  0
 23 24  1  0  0  0
 23 25  1  0  0  0
 25 26  1  0  0  0
 15 16  2  0  0  0
 16 17  1  0  0  0
 16 18  1  0  0  0
 18 19  2  0  0  0
 19 11  1  0  0  0
 11  1  1  0  0  0
  1  2  1  0  0  0
  2  3  2  0  0  0
  3 31  1  0  0  0
 31 33  1  0  0  0
 33 34  2  0  0  0
 34 35  1  0  0  0
 35 36  2  0  0  0
 36 37  1  0  0  0
 37 38  2  0  0  0
 38 39  1  0  0  0
 39 40  2  0  0  0
 39 41  2  0  0  0
 39 42  1  0  0  0
 42 43  1  0  0  0
 42 44  1  0  0  0
  3  4  1  0  0  0
  4  5  2  0  0  0
  5  6  1  0  0  0
  6  7  1  0  0  0
  7  8  2  0  0  0
  8  9  1  0  0  0
 19 13  1  0  0  0
 26 20  1  0  0  0
  9  1  2  0  0  0
 38 33  1  0  0  0
  8  4  1  0  0  0
 11 12  1  0  0  0
 31 32  1  0  0  0
  6 10  1  0  0  0
M  END
> <minimizedAffinity>
-10.36033

$$$$
Molecule_1


 44 47  0  0  0  0  0  0  0  0999 V2000
   -9.1699   19.0961   -7.4932 N   0  0  0  0  0  0  0  0  0  0  0  0
   -8.8662   18.2552   -7.0272 H   0  0  0  0  0  0  0  0  0  0  0  0
   -9.6477   23.9472   -6.7154 C   0  0  0  0  0  0  0  0  0  0  0  0
   -9.5941   22.5688   -6.1207 C   0  0  0  0  0  0  0  0  0  0  0  0
   -9.4278   21.4980   -7.0251 C   0  0  0  0  0  0  0  0  0  0  0  0
   -9.3489   20.1746   -6.6053 C   0  0  0  0  0  0  0  0  0  0  0  0
   -9.5426   19.9182   -5.2429 C   0  0  0  0  0  0  0  0  0  0  0  0
   -9.6927   20.9549   -4.3227 C   0  0  0  0  0  0  0  0  0  0  0  0
   -9.7299   22.2958   -4.7432 C   0  0  0  0  0  0  0  0  0  0  0  0
   -9.8762   23.3528   -3.6543 C   0  0  0  0  0  0  0  0  0  0  0  0
   -8.5965   24.1138   -3.2796 C   0  0  0  0  0  0  0  0  0  0  0  0
   -8.8787   25.2266   -2.2697 C   0  0  0  0  0  0  0  0  0  0  0  0
  -10.0090   24.9476   -1.3738 N   0  0  0  0  0  0  0  0  0  0  0  0
  -10.2054   23.5199   -1.1244 C   0  0  0  0  0  0  0  0  0  0  0  0
  -10.6011   22.7989   -2.4123 C   0  0  0  0  0  0  0  0  0  0  0  0
   -9.9766   25.7804   -0.1578 C   0  0  0  0  0  0  0  0  0  0  0  0
   -9.2826   27.1521   -0.2765 C   0  0  0  0  0  0  0  0  0  0  0  0
   -8.5415   27.4806    0.9029 O   0  0  0  0  0  0  0  0  0  0  0  0
   -9.1642   27.4211    1.6501 H   0  0  0  0  0  0  0  0  0  0  0  0
   -9.5134   18.5963   -4.8569 O   0  0  0  0  0  0  0  0  0  0  0  0
  -10.4611   18.2285   -3.8322 C   0  0  0  0  0  0  0  0  0  0  0  0
   -9.7121   17.3076   -2.8709 C   0  0  0  0  0  0  0  0  0  0  0  0
  -11.6571   17.4858   -4.4204 C   0  0  0  0  0  0  0  0  0  0  0  0
   -8.6467   19.0700   -8.7892 C   0  0  0  0  0  0  0  0  0  0  0  0
   -8.8369   20.0807   -9.6490 N   0  0  0  0  0  0  0  0  0  0  0  0
   -8.2495   19.9768  -10.8601 C   0  0  0  0  0  0  0  0  0  0  0  0
   -7.4713   18.9094  -11.2497 C   0  0  0  0  0  0  0  0  0  0  0  0
   -6.8789   18.8477  -12.8609 Cl  0  0  0  0  0  0  0  0  0  0  0  0
   -7.3238   17.9090  -10.3059 C   0  0  0  0  0  0  0  0  0  0  0  0
   -7.9006   17.9912   -9.0824 N   0  0  0  0  0  0  0  0  0  0  0  0
   -6.6520   16.7056  -10.5383 N   0  0  0  0  0  0  0  0  0  0  0  0
   -5.7467   16.9200  -10.9671 H   0  0  0  0  0  0  0  0  0  0  0  0
   -7.1090   15.4381  -10.9512 C   0  0  0  0  0  0  0  0  0  0  0  0
   -7.5600   15.2174  -12.2647 C   0  0  0  0  0  0  0  0  0  0  0  0
   -7.9980   13.9587  -12.6720 C   0  0  0  0  0  0  0  0  0  0  0  0
   -7.9795   12.8921  -11.7815 C   0  0  0  0  0  0  0  0  0  0  0  0
   -7.5272   13.0798  -10.4721 C   0  0  0  0  0  0  0  0  0  0  0  0
   -7.1121   14.3454  -10.0555 C   0  0  0  0  0  0  0  0  0  0  0  0
   -6.5303   14.6431   -8.3896 S   0  0  0  0  0  0  0  0  0  0  0  0
   -5.4010   15.5414   -8.4924 O   0  0  0  0  0  0  0  0  0  0  0  0
   -6.3621   13.3083   -7.8277 O   0  0  0  0  0  0  0  0  0  0  0  0
   -7.7980   15.4528   -7.4149 C   0  0  0  0  0  0  0  0  0  0  0  0
   -9.1704   14.9728   -7.8924 C   0  0  0  0  0  0  0  0  0  0  0  0
   -7.6709   15.1709   -5.9146 C   0  0  0  0  0  0  0  0  0  0  0  0
  3  4  1  0  0  0
  4  5  2  0  0  0
  5  6  1  0  0  0
  6  1  1  0  0  0
  1 24  1  0  0  0
 24 25  2  0  0  0
 25 26  1  0  0  0
 26 27  2  0  0  0
 27 28  1  0  0  0
 27 29  1  0  0  0
 29 31  1  0  0  0
 31 33  1  0  0  0
 33 34  2  0  0  0
 34 35  1  0  0  0
 35 36  2  0  0  0
 36 37  1  0  0  0
 37 38  2  0  0  0
 38 39  1  0  0  0
 39 40  2  0  0  0
 39 41  2  0  0  0
 39 42  1  0  0  0
 42 43  1  0  0  0
 42 44  1  0  0  0
 29 30  2  0  0  0
  6  7  2  0  0  0
  7 20  1  0  0  0
 20 21  1  0  0  0
 21 22  1  0  0  0
 21 23  1  0  0  0
  7  8  1  0  0  0
  8  9  2  0  0  0
  9 10  1  0  0  0
 10 11  1  0  0  0
 11 12  1  0  0  0
 12 13  1  0  0  0
 13 16  1  0  0  0
 16 17  1  0  0  0
 17 18  1  0  0  0
 13 14  1  0  0  0
 14 15  1  0  0  0
  9  4  1  0  0  0
 15 10  1  0  0  0
 30 24  1  0  0  0
 38 33  1  0  0  0
  1  2  1  0  0  0
 31 32  1  0  0  0
 18 19  1  0  0  0
M  END
> <minimizedAffinity>
-8.23260

$$$$
Molecule_2


 41 44  0  0  0  0  0  0  0  0999 V2000
   -8.6475   19.6133  -10.2080 C   0  0  0  0  0  0  0  0  0  0  0  0
   -8.6801   20.4538  -11.2509 N   0  0  0  0  0  0  0  0  0  0  0  0
   -7.9615   20.1100  -12.3375 C   0  0  0  0  0  0  0  0  0  0  0  0
   -7.2002   18.9698  -12.4185 C   0  0  0  0  0  0  0  0  0  0  0  0
   -6.3096   18.6103  -13.8410 Cl  0  0  0  0  0  0  0  0  0  0  0  0
   -7.2025   18.1589  -11.2931 C   0  0  0  0  0  0  0  0  0  0  0  0
   -7.9332   18.4742  -10.1998 N   0  0  0  0  0  0  0  0  0  0  0  0
   -9.4092   19.8429   -9.0702 N   0  0  0  0  0  0  0  0  0  0  0  0
  -10.3626   20.0552   -9.3289 H   0  0  0  0  0  0  0  0  0  0  0  0
   -8.8967   16.2932   -5.6305 C   0  0  0  0  0  0  0  0  0  0  0  0
   -9.0236   17.7595   -5.9601 C   0  0  0  0  0  0  0  0  0  0  0  0
   -9.1036   18.1232   -7.3232 C   0  0  0  0  0  0  0  0  0  0  0  0
   -9.2705   19.4498   -7.7299 C   0  0  0  0  0  0  0  0  0  0  0  0
   -9.2291   20.4307   -6.7298 C   0  0  0  0  0  0  0  0  0  0  0  0
   -9.2007   20.0931   -5.3739 C   0  0  0  0  0  0  0  0  0  0  0  0
   -9.1264   18.7535   -4.9621 C   0  0  0  0  0  0  0  0  0  0  0  0
   -9.1025   18.4132   -3.4780 C   0  0  0  0  0  0  0  0  0  0  0  0
  -10.4879   18.3824   -2.8119 C   0  0  0  0  0  0  0  0  0  0  0  0
  -10.3539   17.9917   -1.3365 C   0  0  0  0  0  0  0  0  0  0  0  0
   -9.3091   18.7119   -0.6057 N   0  0  0  0  0  0  0  0  0  0  0  0
   -8.7167   19.8045   -1.3698 C   0  0  0  0  0  0  0  0  0  0  0  0
   -8.1397   19.3357   -2.7049 C   0  0  0  0  0  0  0  0  0  0  0  0
   -8.5813   18.0563   -0.3226 H   0  0  0  0  0  0  0  0  0  0  0  0
   -9.2707   21.7759   -7.0283 O   0  0  0  0  0  0  0  0  0  0  0  0
   -9.4063   22.5979   -5.8516 C   0  0  0  0  0  0  0  0  0  0  0  0
  -10.8455   23.0805   -5.6476 C   0  0  0  0  0  0  0  0  0  0  0  0
   -8.4839   23.7998   -6.0570 C   0  0  0  0  0  0  0  0  0  0  0  0
   -6.3963   17.0000  -11.2510 N   0  0  0  0  0  0  0  0  0  0  0  0
   -5.6731   17.0041  -11.9825 H   0  0  0  0  0  0  0  0  0  0  0  0
   -6.0454   16.2106  -10.1326 C   0  0  0  0  0  0  0  0  0  0  0  0
   -6.1208   16.7149   -8.8230 C   0  0  0  0  0  0  0  0  0  0  0  0
   -5.7510   15.9417   -7.7142 C   0  0  0  0  0  0  0  0  0  0  0  0
   -5.3125   14.6339   -7.8861 C   0  0  0  0  0  0  0  0  0  0  0  0
   -5.2717   14.0881   -9.1653 C   0  0  0  0  0  0  0  0  0  0  0  0
   -5.6660   14.8605  -10.2728 C   0  0  0  0  0  0  0  0  0  0  0  0
   -5.6469   14.0860  -11.8773 S   0  0  0  0  0  0  0  0  0  0  0  0
   -5.6417   15.1672  -12.8544 O   0  0  0  0  0  0  0  0  0  0  0  0
   -4.5853   13.0945  -11.8788 O   0  0  0  0  0  0  0  0  0  0  0  0
   -7.2291   13.2360  -11.9919 C   0  0  0  0  0  0  0  0  0  0  0  0
   -8.3426   13.9856  -11.2731 C   0  0  0  0  0  0  0  0  0  0  0  0
   -7.0960   11.8180  -11.4384 C   0  0  0  0  0  0  0  0  0  0  0  0
 10 11  1  0  0  0
 11 12  2  0  0  0
 12 13  1  0  0  0
 13  8  1  0  0  0
  8  1  1  0  0  0
  1  2  2  0  0  0
  2  3  1  0  0  0
  3  4  2  0  0  0
  4  5  1  0  0  0
  4  6  1  0  0  0
  6 28  1  0  0  0
 28 30  1  0  0  0
 30 31  2  0  0  0
 31 32  1  0  0  0
 32 33  2  0  0  0
 33 34  1  0  0  0
 34 35  2  0  0  0
 35 36  1  0  0  0
 36 37  2  0  0  0
 36 38  2  0  0  0
 36 39  1  0  0  0
 39 40  1  0  0  0
 39 41  1  0  0  0
  6  7  2  0  0  0
 13 14  2  0  0  0
 14 24  1  0  0  0
 24 25  1  0  0  0
 25 26  1  0  0  0
 25 27  1  0  0  0
 14 15  1  0  0  0
 15 16  2  0  0  0
 16 17  1  0  0  0
 17 18  1  0  0  0
 18 19  1  0  0  0
 19 20  1  0  0  0
 20 21  1  0  0  0
 21 22  1  0  0  0
 16 11  1  0  0  0
 22 17  1  0  0  0
  7  1  1  0  0  0
 35 30  1  0  0  0
  8  9  1  0  0  0
 28 29  1  0  0  0
 20 23  1  0  0  0
M  END
> <minimizedAffinity>
-9.95244

$$$$
Molecule_3


 29 31  0  0  0  0  0  0  0  0999 V2000
   -8.3713   17.8202   -6.2763 C   0  0  0  0  0  0  0  0  0  0  0  0
   -8.7240   18.0416   -7.7393 C   0  0  0  0  0  0  0  0  0  0  0  0
   -9.8784   17.9214   -8.1339 O   0  0  0  0  0  0  0  0  0  0  0  0
   -7.6206   18.3840   -8.5083 N   0  0  0  0  0  0  0  0  0  0  0  0
   -6.7354   18.4570   -8.0196 H   0  0  0  0  0  0  0  0  0  0  0  0
   -7.5863   18.6825   -9.8844 C   0  0  0  0  0  0  0  0  0  0  0  0
   -6.6886   17.9519  -10.6715 C   0  0  0  0  0  0  0  0  0  0  0  0
   -6.5875   18.1864  -12.0461 C   0  0  0  0  0  0  0  0  0  0  0  0
   -7.3765   19.1678  -12.6600 C   0  0  0  0  0  0  0  0  0  0  0  0
   -8.2788   19.8926  -11.8704 C   0  0  0  0  0  0  0  0  0  0  0  0
   -8.3818   19.6520  -10.4954 C   0  0  0  0  0  0  0  0  0  0  0  0
   -7.2851   19.4242  -14.1434 C   0  0  0  0  0  0  0  0  0  0  0  0
   -8.4060   20.0039  -14.6587 F   0  0  0  0  0  0  0  0  0  0  0  0
   -7.0908   18.2867  -14.8682 F   0  0  0  0  0  0  0  0  0  0  0  0
   -6.2555   20.2535  -14.4649 F   0  0  0  0  0  0  0  0  0  0  0  0
   -8.9353   16.1579   -5.7931 S   0  0  0  0  0  0  0  0  0  0  0  0
   -6.6281   13.7407   -8.8030 C   0  0  0  0  0  0  0  0  0  0  0  0
   -5.9131   14.4689   -7.8661 C   0  0  0  0  0  0  0  0  0  0  0  0
   -6.6186   15.2044   -6.9171 C   0  0  0  0  0  0  0  0  0  0  0  0
   -8.0044   15.1701   -6.9355 C   0  0  0  0  0  0  0  0  0  0  0  0
   -8.6702   14.4368   -7.8519 N   0  0  0  0  0  0  0  0  0  0  0  0
   -7.9795   13.7109   -8.7932 N   0  0  0  0  0  0  0  0  0  0  0  0
   -4.6536    9.8342  -11.7270 C   0  0  0  0  0  0  0  0  0  0  0  0
   -5.0810   11.1511  -11.1857 C   0  0  0  0  0  0  0  0  0  0  0  0
   -4.8988   12.2964  -11.8000 N   0  0  0  0  0  0  0  0  0  0  0  0
   -5.3946   13.3373  -11.0282 C   0  0  0  0  0  0  0  0  0  0  0  0
   -5.2381   14.7241  -11.5389 C   0  0  0  0  0  0  0  0  0  0  0  0
   -5.9818   12.9492   -9.8357 C   0  0  0  0  0  0  0  0  0  0  0  0
   -5.8869   11.2432   -9.6759 S   0  0  0  0  0  0  0  0  0  0  0  0
 23 24  1  0  0  0
 24 25  2  0  0  0
 25 26  1  0  0  0
 26 27  1  0  0  0
 26 28  2  0  0  0
 28 17  1  0  0  0
 17 18  2  0  0  0
 18 19  1  0  0  0
 19 20  2  0  0  0
 20 16  1  0  0  0
 16  1  1  0  0  0
  1  2  1  0  0  0
  2  3  2  0  0  0
  2  4  1  0  0  0
  4  6  1  0  0  0
  6  7  2  0  0  0
  7  8  1  0  0  0
  8  9  2  0  0  0
  9 12  1  0  0  0
 12 13  1  0  0  0
 12 14  1  0  0  0
 12 15  1  0  0  0
  9 10  1  0  0  0
 10 11  2  0  0  0
 20 21  1  0  0  0
 21 22  2  0  0  0
 28 29  1  0  0  0
 29 24  1  0  0  0
 22 17  1  0  0  0
 11  6  1  0  0  0
  4  5  1  0  0  0
M  END
> <minimizedAffinity>
-8.50828

$$$$
Molecule_4


 31 34  0  0  0  0  0  0  0  0999 V2000
   -8.8686   19.8534  -10.4424 C   0  0  0  0  0  0  0  0  0  0  0  0
   -8.4132   19.1728   -9.2034 C   0  0  0  0  0  0  0  0  0  0  0  0
   -7.4501   18.1178   -9.0746 C   0  0  0  0  0  0  0  0  0  0  0  0
   -7.3313   17.7178   -7.7963 N   0  0  0  0  0  0  0  0  0  0  0  0
   -8.1889   18.5158   -7.1396 N   0  0  0  0  0  0  0  0  0  0  0  0
   -8.8751   19.4036   -7.9180 C   0  0  0  0  0  0  0  0  0  0  0  0
   -9.8108   20.2520   -7.4096 N   0  0  0  0  0  0  0  0  0  0  0  0
   -9.8490   20.3498   -6.1234 C   0  0  0  0  0  0  0  0  0  0  0  0
  -10.7359   21.1899   -5.5778 O   0  0  0  0  0  0  0  0  0  0  0  0
   -8.9512   19.6751   -5.1309 C   0  0  0  0  0  0  0  0  0  0  0  0
   -8.4184   18.3697   -5.7136 C   0  0  0  0  0  0  0  0  0  0  0  0
  -11.2590   21.5800   -6.2998 H   0  0  0  0  0  0  0  0  0  0  0  0
   -6.6746   17.4651  -10.1283 C   0  0  0  0  0  0  0  0  0  0  0  0
   -6.3177   18.1582  -11.2907 C   0  0  0  0  0  0  0  0  0  0  0  0
   -5.5780   17.5238  -12.2915 C   0  0  0  0  0  0  0  0  0  0  0  0
   -5.1855   16.1944  -12.1324 C   0  0  0  0  0  0  0  0  0  0  0  0
   -5.5368   15.5057  -10.9724 C   0  0  0  0  0  0  0  0  0  0  0  0
   -5.0524   13.8658  -10.7783 Cl  0  0  0  0  0  0  0  0  0  0  0  0
   -6.2740   16.1301   -9.9748 C   0  0  0  0  0  0  0  0  0  0  0  0
   -9.3383   17.1776   -5.4477 C   0  0  0  0  0  0  0  0  0  0  0  0
  -10.2444   16.8779   -6.2204 O   0  0  0  0  0  0  0  0  0  0  0  0
   -9.0998   16.5731   -4.2215 N   0  0  0  0  0  0  0  0  0  0  0  0
   -8.3340   16.9659   -3.6710 H   0  0  0  0  0  0  0  0  0  0  0  0
   -9.7361   15.4437   -3.6758 C   0  0  0  0  0  0  0  0  0  0  0  0
   -9.4604   14.1277   -4.0698 C   0  0  0  0  0  0  0  0  0  0  0  0
  -10.1353   13.0534   -3.4747 C   0  0  0  0  0  0  0  0  0  0  0  0
  -11.0803   13.2960   -2.4854 C   0  0  0  0  0  0  0  0  0  0  0  0
  -11.7214   12.2661   -1.9205 F   0  0  0  0  0  0  0  0  0  0  0  0
  -11.3561   14.5987   -2.0873 C   0  0  0  0  0  0  0  0  0  0  0  0
  -12.2953   14.8370   -1.1628 F   0  0  0  0  0  0  0  0  0  0  0  0
  -10.6896   15.6717   -2.6736 C   0  0  0  0  0  0  0  0  0  0  0  0
  1  2  1  0  0  0
  2  3  1  0  0  0
  3 13  1  0  0  0
 13 14  2  0  0  0
 14 15  1  0  0  0
 15 16  2  0  0  0
 16 17  1  0  0  0
 17 18  1  0  0  0
 17 19  2  0  0  0
  3  4  2  0  0  0
  4  5  1  0  0  0
  5  6  1  0  0  0
  6  7  1  0  0  0
  7  8  2  0  0  0
  8  9  1  0  0  0
  8 10  1  0  0  0
 10 11  1  0  0  0
 11 20  1  0  0  0
 20 21  2  0  0  0
 20 22  1  0  0  0
 22 24  1  0  0  0
 24 25  2  0  0  0
 25 26  1  0  0  0
 26 27  2  0  0  0
 27 28  1  0  0  0
 27 29  1  0  0  0
 29 30  1  0  0  0
 29 31  2  0  0  0
  6  2  2  0  0  0
 31 24  1  0  0  0
 19 13  1  0  0  0
 11  5  1  0  0  0
  9 12  1  0  0  0
 22 23  1  0  0  0
M  END
> <minimizedAffinity>
-8.94319

$$$$
Molecule_5


 31 36  0  0  0  0  0  0  0  0999 V2000
   -4.5623   15.3393  -11.9139 C   0  0  0  0  0  0  0  0  0  0  0  0
   -5.3159   16.5758  -12.2176 C   0  0  0  0  0  0  0  0  0  0  0  0
   -5.2717   17.1829  -13.4512 N   0  0  0  0  0  0  0  0  0  0  0  0
   -6.0222   18.2996  -13.5344 N   0  0  0  0  0  0  0  0  0  0  0  0
   -6.5554   18.3791  -12.3214 C   0  0  0  0  0  0  0  0  0  0  0  0
   -6.1806   17.3450  -11.4629 C   0  0  0  0  0  0  0  0  0  0  0  0
   -6.6951   17.2874  -10.0720 C   0  0  0  0  0  0  0  0  0  0  0  0
   -7.5422   18.5187   -9.7423 C   0  0  0  0  0  0  0  0  0  0  0  0
   -7.8427   19.4703  -10.6824 C   0  0  0  0  0  0  0  0  0  0  0  0
   -8.6277   20.5924  -10.4294 N   0  0  0  0  0  0  0  0  0  0  0  0
   -9.0937   20.7630   -9.2282 C   0  0  0  0  0  0  0  0  0  0  0  0
   -8.8053   19.8521   -8.2347 N   0  0  0  0  0  0  0  0  0  0  0  0
   -9.2406   19.9514   -6.9700 N   0  0  0  0  0  0  0  0  0  0  0  0
   -8.6656   18.8762   -6.4042 C   0  0  0  0  0  0  0  0  0  0  0  0
   -7.9277   18.1033   -7.2856 N   0  0  0  0  0  0  0  0  0  0  0  0
   -8.0405   18.7443   -8.4272 C   0  0  0  0  0  0  0  0  0  0  0  0
   -7.3757   19.3938  -12.0036 O   0  0  0  0  0  0  0  0  0  0  0  0
   -4.7511   16.8936  -14.2731 H   0  0  0  0  0  0  0  0  0  0  0  0
   -8.8451   18.4729   -5.0157 C   0  0  0  0  0  0  0  0  0  0  0  0
   -8.5872   19.4313   -4.0165 C   0  0  0  0  0  0  0  0  0  0  0  0
   -8.7220   19.1157   -2.6627 C   0  0  0  0  0  0  0  0  0  0  0  0
   -9.1229   17.8381   -2.2859 C   0  0  0  0  0  0  0  0  0  0  0  0
   -9.3962   16.8806   -3.2628 C   0  0  0  0  0  0  0  0  0  0  0  0
   -9.2633   17.1918   -4.6237 C   0  0  0  0  0  0  0  0  0  0  0  0
   -9.6939   15.9460   -5.7463 Cl  0  0  0  0  0  0  0  0  0  0  0  0
   -7.4778   15.9834   -9.9624 C   0  0  0  0  0  0  0  0  0  0  0  0
   -7.6289   15.2957   -8.7437 C   0  0  0  0  0  0  0  0  0  0  0  0
   -8.3380   14.0944   -8.6848 C   0  0  0  0  0  0  0  0  0  0  0  0
   -8.8998   13.5572   -9.8404 C   0  0  0  0  0  0  0  0  0  0  0  0
   -8.7515   14.2181  -11.0573 C   0  0  0  0  0  0  0  0  0  0  0  0
   -8.0441   15.4202  -11.1193 C   0  0  0  0  0  0  0  0  0  0  0  0
  1  2  1  0  0  0
  2  3  1  0  0  0
  3  4  1  0  0  0
  4  5  2  0  0  0
  5  6  1  0  0  0
  6  7  1  0  0  0
  7 26  1  0  0  0
 26 27  2  0  0  0
 27 28  1  0  0  0
 28 29  2  0  0  0
 29 30  1  0  0  0
 30 31  2  0  0  0
  7  8  1  0  0  0
  8  9  2  0  0  0
  9 10  1  0  0  0
 10 11  2  0  0  0
 11 12  1  0  0  0
 12 13  1  0  0  0
 13 14  2  0  0  0
 14 19  1  0  0  0
 19 20  2  0  0  0
 20 21  1  0  0  0
 21 22  2  0  0  0
 22 23  1  0  0  0
 23 24  2  0  0  0
 24 25  1  0  0  0
 14 15  1  0  0  0
 15 16  2  0  0  0
  9 17  1  0  0  0
  6  2  2  0  0  0
 31 26  1  0  0  0
 16  8  1  0  0  0
 17  5  1  0  0  0
 16 12  1  0  0  0
 24 19  1  0  0  0
  3 18  1  0  0  0
M  END
> <minimizedAffinity>
-8.34171

$$$$
Molecule_6


 32 36  0  0  0  0  0  0  0  0999 V2000
   -8.6092   20.1485   -2.4074 C   0  0  0  0  0  0  0  0  0  0  0  0
   -9.1524   19.0569   -2.9815 C   0  0  0  0  0  0  0  0  0  0  0  0
  -10.1795   19.1885   -4.0988 C   0  0  0  0  0  0  0  0  0  0  0  0
  -10.5332   20.5904   -4.3472 N   0  0  0  0  0  0  0  0  0  0  0  0
  -11.5378   20.9971   -5.1527 N   0  0  0  0  0  0  0  0  0  0  0  0
  -11.4452   22.3241   -5.0065 C   0  0  0  0  0  0  0  0  0  0  0  0
  -10.4866   22.7662   -4.1309 N   0  0  0  0  0  0  0  0  0  0  0  0
   -9.9452   21.6517   -3.7086 C   0  0  0  0  0  0  0  0  0  0  0  0
   -8.9850   21.4201   -2.7931 N   0  0  0  0  0  0  0  0  0  0  0  0
   -8.5532   22.2025   -2.3113 H   0  0  0  0  0  0  0  0  0  0  0  0
   -6.2674   21.0419    0.4245 C   0  0  0  0  0  0  0  0  0  0  0  0
   -5.6940   19.8013    0.7034 C   0  0  0  0  0  0  0  0  0  0  0  0
   -6.0725   18.6735   -0.0296 C   0  0  0  0  0  0  0  0  0  0  0  0
   -7.0253   18.7807   -1.0434 C   0  0  0  0  0  0  0  0  0  0  0  0
   -7.6112   20.0187   -1.3333 C   0  0  0  0  0  0  0  0  0  0  0  0
   -7.2219   21.1434   -0.5928 C   0  0  0  0  0  0  0  0  0  0  0  0
   -7.0862   23.0778    1.3410 C   0  0  0  0  0  0  0  0  0  0  0  0
   -5.9876   22.2191    1.0625 O   0  0  0  0  0  0  0  0  0  0  0  0
   -9.6998   18.5107   -5.3755 C   0  0  0  0  0  0  0  0  0  0  0  0
  -10.1478   17.2206   -5.6994 C   0  0  0  0  0  0  0  0  0  0  0  0
   -9.7100   16.5779   -6.8642 C   0  0  0  0  0  0  0  0  0  0  0  0
   -8.8173   17.2154   -7.7246 C   0  0  0  0  0  0  0  0  0  0  0  0
   -8.3678   18.4989   -7.4101 C   0  0  0  0  0  0  0  0  0  0  0  0
   -8.8035   19.1448   -6.2508 C   0  0  0  0  0  0  0  0  0  0  0  0
   -8.3111   16.7042   -8.8869 O   0  0  0  0  0  0  0  0  0  0  0  0
   -6.8920   16.6399   -9.0049 C   0  0  0  0  0  0  0  0  0  0  0  0
   -6.5193   16.9819  -10.4268 C   0  0  0  0  0  0  0  0  0  0  0  0
   -5.6058   16.1935  -11.1401 C   0  0  0  0  0  0  0  0  0  0  0  0
   -5.2645   16.5201  -12.4539 C   0  0  0  0  0  0  0  0  0  0  0  0
   -5.8273   17.6396  -13.0645 C   0  0  0  0  0  0  0  0  0  0  0  0
   -6.7283   18.4369  -12.3614 C   0  0  0  0  0  0  0  0  0  0  0  0
   -7.0708   18.1120  -11.0480 C   0  0  0  0  0  0  0  0  0  0  0  0
 17 18  1  0  0  0
 18 11  1  0  0  0
 11 12  2  0  0  0
 12 13  1  0  0  0
 13 14  2  0  0  0
 14 15  1  0  0  0
 15  1  1  0  0  0
  1  2  2  0  0  0
  2  3  1  0  0  0
  3 19  1  0  0  0
 19 20  2  0  0  0
 20 21  1  0  0  0
 21 22  2  0  0  0
 22 25  1  0  0  0
 25 26  1  0  0  0
 26 27  1  0  0  0
 27 28  2  0  0  0
 28 29  1  0  0  0
 29 30  2  0  0  0
 30 31  1  0  0  0
 31 32  2  0  0  0
 22 23  1  0  0  0
 23 24  2  0  0  0
  3  4  1  0  0  0
  4  5  1  0  0  0
  5  6  2  0  0  0
  6  7  1  0  0  0
  7  8  2  0  0  0
  8  9  1  0  0  0
 15 16  2  0  0  0
 16 11  1  0  0  0
  9  1  1  0  0  0
 24 19  1  0  0  0
  8  4  1  0  0  0
 32 27  1  0  0  0
  9 10  1  0  0  0
M  END
> <minimizedAffinity>
-7.72206

$$$$
Molecule_7


 27 29  0  0  0  0  0  0  0  0999 V2000
   -8.1288   14.5731   -8.8824 C   0  0  0  0  0  0  0  0  0  0  0  0
   -8.8825   14.5720   -9.8671 O   0  0  0  0  0  0  0  0  0  0  0  0
   -8.4952   15.2734   -7.7449 N   0  0  0  0  0  0  0  0  0  0  0  0
   -7.8749   15.1959   -6.4200 C   0  0  0  0  0  0  0  0  0  0  0  0
   -8.8655   15.5112   -5.2812 C   0  0  0  0  0  0  0  0  0  0  0  0
   -9.5438   16.8182   -5.3845 N   0  0  0  0  0  0  0  0  0  0  0  0
   -9.6962   17.2421   -6.7977 C   0  0  0  0  0  0  0  0  0  0  0  0
   -9.7240   16.0767   -7.8032 C   0  0  0  0  0  0  0  0  0  0  0  0
   -6.6967   12.6018   -9.9320 C   0  0  0  0  0  0  0  0  0  0  0  0
   -6.8115   13.7832   -8.9817 C   0  0  0  0  0  0  0  0  0  0  0  0
   -5.3319   14.8778   -9.0212 S   0  0  0  0  0  0  0  0  0  0  0  0
   -5.7191   16.0033  -10.3398 C   0  0  0  0  0  0  0  0  0  0  0  0
   -5.3565   15.7053  -11.6578 C   0  0  0  0  0  0  0  0  0  0  0  0
   -5.6750   16.5875  -12.6935 C   0  0  0  0  0  0  0  0  0  0  0  0
   -6.3710   17.7609  -12.4124 C   0  0  0  0  0  0  0  0  0  0  0  0
   -6.7518   18.8552  -13.6829 Cl  0  0  0  0  0  0  0  0  0  0  0  0
   -6.7603   18.0545  -11.1068 C   0  0  0  0  0  0  0  0  0  0  0  0
   -6.4405   17.1714  -10.0720 C   0  0  0  0  0  0  0  0  0  0  0  0
   -8.8672   17.8489   -4.5866 C   0  0  0  0  0  0  0  0  0  0  0  0
   -8.9419   19.2530   -5.1287 C   0  0  0  0  0  0  0  0  0  0  0  0
   -9.6433   20.2759   -4.6109 C   0  0  0  0  0  0  0  0  0  0  0  0
   -9.6868   21.6270   -5.1862 C   0  0  0  0  0  0  0  0  0  0  0  0
   -9.9923   22.7077   -4.3487 C   0  0  0  0  0  0  0  0  0  0  0  0
  -10.0193   24.0118   -4.8496 C   0  0  0  0  0  0  0  0  0  0  0  0
   -9.7293   24.2496   -6.1913 C   0  0  0  0  0  0  0  0  0  0  0  0
   -9.4071   23.1851   -7.0307 C   0  0  0  0  0  0  0  0  0  0  0  0
   -9.3808   21.8808   -6.5295 C   0  0  0  0  0  0  0  0  0  0  0  0
  9 10  1  0  0  0
 10 11  1  0  0  0
 11 12  1  0  0  0
 12 13  2  0  0  0
 13 14  1  0  0  0
 14 15  2  0  0  0
 15 16  1  0  0  0
 15 17  1  0  0  0
 17 18  2  0  0  0
 10  1  1  0  0  0
  1  2  2  0  0  0
  1  3  1  0  0  0
  3  4  1  0  0  0
  4  5  1  0  0  0
  5  6  1  0  0  0
  6 19  1  0  0  0
 19 20  1  0  0  0
 20 21  2  0  0  0
 21 22  1  0  0  0
 22 23  2  0  0  0
 23 24  1  0  0  0
 24 25  2  0  0  0
 25 26  1  0  0  0
 26 27  2  0  0  0
  6  7  1  0  0  0
  7  8  1  0  0  0
 18 12  1  0  0  0
  8  3  1  0  0  0
 27 22  1  0  0  0
M  END
> <minimizedAffinity>
-7.56950

$$$$
Molecule_8


 28 32  0  0  0  0  0  0  0  0999 V2000
   -6.2907   18.3242  -12.9774 O   0  0  0  0  0  0  0  0  0  0  0  0
   -6.1884   17.4942  -12.0758 C   0  0  0  0  0  0  0  0  0  0  0  0
   -5.4295   16.2013  -12.2822 C   0  0  0  0  0  0  0  0  0  0  0  0
   -5.7725   15.1069  -11.2688 C   0  0  0  0  0  0  0  0  0  0  0  0
   -5.6774   15.6072   -9.8268 C   0  0  0  0  0  0  0  0  0  0  0  0
   -6.5197   16.8409   -9.5702 C   0  0  0  0  0  0  0  0  0  0  0  0
   -6.9632   17.0346   -8.3607 N   0  0  0  0  0  0  0  0  0  0  0  0
   -7.7091   18.1618   -8.1601 C   0  0  0  0  0  0  0  0  0  0  0  0
   -8.2846   18.5946   -7.0613 N   0  0  0  0  0  0  0  0  0  0  0  0
   -8.8824   19.7546   -7.4525 C   0  0  0  0  0  0  0  0  0  0  0  0
   -8.7158   20.0885   -8.7319 N   0  0  0  0  0  0  0  0  0  0  0  0
   -7.9652   19.0692   -9.1951 N   0  0  0  0  0  0  0  0  0  0  0  0
   -7.4678   18.8609  -10.4709 C   0  0  0  0  0  0  0  0  0  0  0  0
   -6.7335   17.7680  -10.7269 C   0  0  0  0  0  0  0  0  0  0  0  0
   -7.0941   14.4639  -11.5513 C   0  0  0  0  0  0  0  0  0  0  0  0
   -8.2845   14.4175  -10.8558 C   0  0  0  0  0  0  0  0  0  0  0  0
   -9.1780   13.6534  -11.6443 C   0  0  0  0  0  0  0  0  0  0  0  0
   -8.4779   13.2831  -12.7677 C   0  0  0  0  0  0  0  0  0  0  0  0
   -7.2126   13.7710  -12.7188 O   0  0  0  0  0  0  0  0  0  0  0  0
   -9.8091   20.7673   -6.3815 S   0  0  0  0  0  0  0  0  0  0  0  0
   -9.3392   22.4028   -7.0074 C   0  0  0  0  0  0  0  0  0  0  0  0
   -9.4789   23.4616   -5.9400 C   0  0  0  0  0  0  0  0  0  0  0  0
   -9.4924   23.1085   -4.5817 C   0  0  0  0  0  0  0  0  0  0  0  0
   -9.6077   24.0886   -3.5937 C   0  0  0  0  0  0  0  0  0  0  0  0
   -9.7059   25.4327   -3.9519 C   0  0  0  0  0  0  0  0  0  0  0  0
   -9.6847   25.7920   -5.2977 C   0  0  0  0  0  0  0  0  0  0  0  0
   -9.8009   27.4513   -5.7399 Cl  0  0  0  0  0  0  0  0  0  0  0  0
   -9.5697   24.8180   -6.2897 C   0  0  0  0  0  0  0  0  0  0  0  0
  1  2  2  0  0  0
  2  3  1  0  0  0
  3  4  1  0  0  0
  4 15  1  0  0  0
 15 16  2  0  0  0
 16 17  1  0  0  0
 17 18  2  0  0  0
 18 19  1  0  0  0
  4  5  1  0  0  0
  5  6  1  0  0  0
  6  7  2  0  0  0
  7  8  1  0  0  0
  8  9  2  0  0  0
  9 10  1  0  0  0
 10 20  1  0  0  0
 20 21  1  0  0  0
 21 22  1  0  0  0
 22 23  2  0  0  0
 23 24  1  0  0  0
 24 25  2  0  0  0
 25 26  1  0  0  0
 26 27  1  0  0  0
 26 28  2  0  0  0
 10 11  2  0  0  0
 11 12  1  0  0  0
 12 13  1  0  0  0
 13 14  2  0  0  0
 14  2  1  0  0  0
 19 15  1  0  0  0
 14  6  1  0  0  0
 12  8  1  0  0  0
 28 22  1  0  0  0
M  END
> <minimizedAffinity>
-8.82896

$$$$
Molecule_9


 26 27  0  0  0  0  0  0  0  0999 V2000
   -7.3126   15.2194  -10.8578 C   0  0  0  0  0  0  0  0  0  0  0  0
   -7.0409   16.4249  -11.5127 C   0  0  0  0  0  0  0  0  0  0  0  0
   -7.3281   17.6481  -10.8985 C   0  0  0  0  0  0  0  0  0  0  0  0
   -7.9045   17.6690   -9.6223 C   0  0  0  0  0  0  0  0  0  0  0  0
   -8.2190   16.4615   -8.9873 C   0  0  0  0  0  0  0  0  0  0  0  0
   -7.9284   15.2416   -9.6058 C   0  0  0  0  0  0  0  0  0  0  0  0
   -8.2394   18.9459   -8.9287 C   0  0  0  0  0  0  0  0  0  0  0  0
   -8.1277   19.9946   -9.5504 O   0  0  0  0  0  0  0  0  0  0  0  0
   -8.6872   18.8065   -7.6297 N   0  0  0  0  0  0  0  0  0  0  0  0
   -8.8537   17.8651   -7.2884 H   0  0  0  0  0  0  0  0  0  0  0  0
   -9.0484   19.8315   -6.7208 C   0  0  0  0  0  0  0  0  0  0  0  0
   -9.2212   21.1672   -7.0967 C   0  0  0  0  0  0  0  0  0  0  0  0
   -9.5760   22.1361   -6.1475 C   0  0  0  0  0  0  0  0  0  0  0  0
   -9.7697   23.7649   -6.6935 Cl  0  0  0  0  0  0  0  0  0  0  0  0
   -9.7590   21.7741   -4.8085 C   0  0  0  0  0  0  0  0  0  0  0  0
  -10.1953   22.9168   -3.5886 Cl  0  0  0  0  0  0  0  0  0  0  0  0
   -9.5852   20.4463   -4.4184 C   0  0  0  0  0  0  0  0  0  0  0  0
   -9.2315   19.4860   -5.3680 C   0  0  0  0  0  0  0  0  0  0  0  0
   -9.0215   17.8518   -4.8329 Cl  0  0  0  0  0  0  0  0  0  0  0  0
   -7.0504   14.0035  -11.5753 N   0  0  0  0  0  0  0  0  0  0  0  0
   -5.5506   13.2307  -11.3441 S   0  0  0  0  0  0  0  0  0  0  0  0
   -6.0618   11.6285  -10.7566 C   0  0  0  0  0  0  0  0  0  0  0  0
   -4.8843   13.0641  -12.6181 O   0  0  0  0  0  0  0  0  0  0  0  0
   -4.8790   13.8922  -10.2431 O   0  0  0  0  0  0  0  0  0  0  0  0
   -9.2361   13.7314  -12.7870 C   0  0  0  0  0  0  0  0  0  0  0  0
   -8.2215   13.1204  -11.8351 C   0  0  0  0  0  0  0  0  0  0  0  0
 25 26  1  0  0  0
 26 20  1  0  0  0
 20  1  1  0  0  0
  1  2  2  0  0  0
  2  3  1  0  0  0
  3  4  2  0  0  0
  4  7  1  0  0  0
  7  8  2  0  0  0
  7  9  1  0  0  0
  9 11  1  0  0  0
 11 12  2  0  0  0
 12 13  1  0  0  0
 13 14  1  0  0  0
 13 15  2  0  0  0
 15 16  1  0  0  0
 15 17  1  0  0  0
 17 18  2  0  0  0
 18 19  1  0  0  0
  4  5  1  0  0  0
  5  6  2  0  0  0
 20 21  1  0  0  0
 21 22  1  0  0  0
 21 23  2  0  0  0
 21 24  2  0  0  0
  6  1  1  0  0  0
 18 11  1  0  0  0
  9 10  1  0  0  0
M  END
> <minimizedAffinity>
-7.90738

$$$$
