Molecule_0


 44 48  0  0  0  0  0  0  0  0999 V2000
   -8.4898   19.5645  -10.3806 C   0  0  0  0  0  0  0  0  0  0  0  0
   -7.6766   18.4926  -10.0979 N   0  0  0  0  0  0  0  0  0  0  0  0
   -6.8539   17.9525  -11.0397 C   0  0  0  0  0  0  0  0  0  0  0  0
   -7.0063   18.5595  -12.2830 C   0  0  0  0  0  0  0  0  0  0  0  0
   -6.4295   18.2428  -13.4850 C   0  0  0  0  0  0  0  0  0  0  0  0
   -6.9384   19.1570  -14.3673 N   0  0  0  0  0  0  0  0  0  0  0  0
   -7.8186   20.0158  -13.8220 N   0  0  0  0  0  0  0  0  0  0  0  0
   -7.8730   19.6448  -12.5392 C   0  0  0  0  0  0  0  0  0  0  0  0
   -8.6340   20.1881  -11.5733 N   0  0  0  0  0  0  0  0  0  0  0  0
   -6.7334   19.2499  -15.3571 H   0  0  0  0  0  0  0  0  0  0  0  0
   -9.1766   20.0282   -9.2556 N   0  0  0  0  0  0  0  0  0  0  0  0
  -10.0507   20.4428   -9.5517 H   0  0  0  0  0  0  0  0  0  0  0  0
   -9.1996   20.4911   -6.8785 C   0  0  0  0  0  0  0  0  0  0  0  0
   -9.1576   20.0841   -5.5435 C   0  0  0  0  0  0  0  0  0  0  0  0
   -9.1500   18.7240   -5.1995 C   0  0  0  0  0  0  0  0  0  0  0  0
   -9.1898   17.7754   -6.2455 C   0  0  0  0  0  0  0  0  0  0  0  0
   -9.1875   16.2908   -5.9825 C   0  0  0  0  0  0  0  0  0  0  0  0
   -9.1973   18.2102   -7.5903 C   0  0  0  0  0  0  0  0  0  0  0  0
   -9.1860   19.5647   -7.9304 C   0  0  0  0  0  0  0  0  0  0  0  0
   -9.1504   18.3038   -3.7340 C   0  0  0  0  0  0  0  0  0  0  0  0
  -10.5840   18.2725   -3.1686 C   0  0  0  0  0  0  0  0  0  0  0  0
  -10.6725   18.8191   -1.7410 C   0  0  0  0  0  0  0  0  0  0  0  0
   -9.6054   18.3582   -0.8512 N   0  0  0  0  0  0  0  0  0  0  0  0
   -9.8129   16.9846   -0.4031 C   0  0  0  0  0  0  0  0  0  0  0  0
   -8.2554   18.5546   -1.3997 C   0  0  0  0  0  0  0  0  0  0  0  0
   -8.2213   19.1246   -2.8220 C   0  0  0  0  0  0  0  0  0  0  0  0
   -9.1845   21.8428   -7.1270 O   0  0  0  0  0  0  0  0  0  0  0  0
   -8.5106   23.9167   -6.0253 C   0  0  0  0  0  0  0  0  0  0  0  0
   -9.3242   22.6284   -5.9271 C   0  0  0  0  0  0  0  0  0  0  0  0
  -10.8113   22.9505   -5.8034 C   0  0  0  0  0  0  0  0  0  0  0  0
   -6.0436   16.8724  -10.6814 N   0  0  0  0  0  0  0  0  0  0  0  0
   -5.8939   16.2873  -11.5112 H   0  0  0  0  0  0  0  0  0  0  0  0
   -6.0142   16.1054   -9.4976 C   0  0  0  0  0  0  0  0  0  0  0  0
   -5.8263   16.6951   -8.2377 C   0  0  0  0  0  0  0  0  0  0  0  0
   -5.7798   15.9254   -7.0702 C   0  0  0  0  0  0  0  0  0  0  0  0
   -5.9284   14.5445   -7.1334 C   0  0  0  0  0  0  0  0  0  0  0  0
   -6.1304   13.9305   -8.3658 C   0  0  0  0  0  0  0  0  0  0  0  0
   -6.1673   14.7061   -9.5349 C   0  0  0  0  0  0  0  0  0  0  0  0
   -6.4682   13.8777  -11.0852 S   0  0  0  0  0  0  0  0  0  0  0  0
   -6.4262   12.4537  -10.7964 O   0  0  0  0  0  0  0  0  0  0  0  0
   -5.5652   14.4468  -12.0700 O   0  0  0  0  0  0  0  0  0  0  0  0
   -8.1509   14.3217  -11.5381 C   0  0  0  0  0  0  0  0  0  0  0  0
   -9.0631   14.1987  -10.3189 C   0  0  0  0  0  0  0  0  0  0  0  0
   -8.6787   13.4674  -12.6847 C   0  0  0  0  0  0  0  0  0  0  0  0
 28 29  1  0  0  0
 29 30  1  0  0  0
 29 27  1  0  0  0
 27 13  1  0  0  0
 13 14  2  0  0  0
 14 15  1  0  0  0
 15 20  1  0  0  0
 20 21  1  0  0  0
 21 22  1  0  0  0
 22 23  1  0  0  0
 23 24  1  0  0  0
 23 25  1  0  0  0
 25 26  1  0  0  0
 15 16  2  0  0  0
 16 17  1  0  0  0
 16 18  1  0  0  0
 18 19  2  0  0  0
 19 11  1  0  0  0
 11  1  1  0  0  0
  1  2  1  0  0  0
  2  3  2  0  0  0
  3 31  1  0  0  0
 31 33  1  0  0  0
 33 34  2  0  0  0
 34 35  1  0  0  0
 35 36  2  0  0  0
 36 37  1  0  0  0
 37 38  2  0  0  0
 38 39  1  0  0  0
 39 40  2  0  0  0
 39 41  2  0  0  0
 39 42  1  0  0  0
 42 43  1  0  0  0
 42 44  1  0  0  0
  3  4  1  0  0  0
  4  5  2  0  0  0
  5  6  1  0  0  0
  6  7  1  0  0  0
  7  8  2  0  0  0
  8  9  1  0  0  0
 19 13  1  0  0  0
 26 20  1  0  0  0
  9  1  2  0  0  0
 38 33  1  0  0  0
  8  4  1  0  0  0
 11 12  1  0  0  0
 31 32  1  0  0  0
  6 10  1  0  0  0
M  END
> <minimizedAffinity>
-9.95027

$$$$
Molecule_1


 44 47  0  0  0  0  0  0  0  0999 V2000
   -9.4558   20.4547   -5.9396 N   0  0  0  0  0  0  0  0  0  0  0  0
   -9.7249   20.0358   -5.0578 H   0  0  0  0  0  0  0  0  0  0  0  0
   -8.2828   19.3566  -10.6387 C   0  0  0  0  0  0  0  0  0  0  0  0
   -8.4248   18.9105   -9.2071 C   0  0  0  0  0  0  0  0  0  0  0  0
   -8.8622   19.8573   -8.2591 C   0  0  0  0  0  0  0  0  0  0  0  0
   -9.0432   19.5300   -6.9121 C   0  0  0  0  0  0  0  0  0  0  0  0
   -8.7549   18.2127   -6.5047 C   0  0  0  0  0  0  0  0  0  0  0  0
   -8.3232   17.2632   -7.4362 C   0  0  0  0  0  0  0  0  0  0  0  0
   -8.1584   17.5877   -8.7974 C   0  0  0  0  0  0  0  0  0  0  0  0
   -7.6756   16.5195   -9.7736 C   0  0  0  0  0  0  0  0  0  0  0  0
   -6.1477   16.3833   -9.7406 C   0  0  0  0  0  0  0  0  0  0  0  0
   -5.6685   15.3047  -10.7148 C   0  0  0  0  0  0  0  0  0  0  0  0
   -6.3069   14.0080  -10.4411 N   0  0  0  0  0  0  0  0  0  0  0  0
   -7.7735   14.1182  -10.5383 C   0  0  0  0  0  0  0  0  0  0  0  0
   -8.3255   15.1458   -9.5485 C   0  0  0  0  0  0  0  0  0  0  0  0
   -5.8323   12.9572  -11.3664 C   0  0  0  0  0  0  0  0  0  0  0  0
   -6.2447   11.5306  -10.9769 C   0  0  0  0  0  0  0  0  0  0  0  0
   -7.1504   11.0148  -11.9508 O   0  0  0  0  0  0  0  0  0  0  0  0
   -7.4011   10.1226  -11.6569 H   0  0  0  0  0  0  0  0  0  0  0  0
   -8.9707   17.9531   -5.1714 O   0  0  0  0  0  0  0  0  0  0  0  0
   -9.9133   16.9351   -4.8178 C   0  0  0  0  0  0  0  0  0  0  0  0
   -9.3548   16.2321   -3.5826 C   0  0  0  0  0  0  0  0  0  0  0  0
  -11.2560   17.5769   -4.4871 C   0  0  0  0  0  0  0  0  0  0  0  0
   -9.5344   21.8377   -5.8782 C   0  0  0  0  0  0  0  0  0  0  0  0
   -9.7146   22.5837   -6.9741 N   0  0  0  0  0  0  0  0  0  0  0  0
   -9.7291   23.9211   -6.8073 C   0  0  0  0  0  0  0  0  0  0  0  0
   -9.5698   24.5541   -5.5958 C   0  0  0  0  0  0  0  0  0  0  0  0
   -9.5582   26.2711   -5.5628 Cl  0  0  0  0  0  0  0  0  0  0  0  0
   -9.4113   23.7124   -4.5063 C   0  0  0  0  0  0  0  0  0  0  0  0
   -9.3709   22.3681   -4.6545 N   0  0  0  0  0  0  0  0  0  0  0  0
   -9.2157   24.1309   -3.1676 N   0  0  0  0  0  0  0  0  0  0  0  0
   -8.2658   24.5218   -3.2027 H   0  0  0  0  0  0  0  0  0  0  0  0
   -9.3856   23.3364   -2.0105 C   0  0  0  0  0  0  0  0  0  0  0  0
   -8.2633   22.6183   -1.5622 C   0  0  0  0  0  0  0  0  0  0  0  0
   -8.3066   21.8661   -0.3885 C   0  0  0  0  0  0  0  0  0  0  0  0
   -9.4747   21.8250    0.3643 C   0  0  0  0  0  0  0  0  0  0  0  0
  -10.6089   22.5118   -0.0707 C   0  0  0  0  0  0  0  0  0  0  0  0
  -10.5765   23.2404   -1.2694 C   0  0  0  0  0  0  0  0  0  0  0  0
  -12.0610   24.0150   -1.8746 S   0  0  0  0  0  0  0  0  0  0  0  0
  -11.6928   25.3901   -2.1587 O   0  0  0  0  0  0  0  0  0  0  0  0
  -12.5876   23.1443   -2.9138 O   0  0  0  0  0  0  0  0  0  0  0  0
  -13.2751   24.0235   -0.5515 C   0  0  0  0  0  0  0  0  0  0  0  0
  -14.2969   22.8998   -0.7000 C   0  0  0  0  0  0  0  0  0  0  0  0
  -13.9904   25.3750   -0.5173 C   0  0  0  0  0  0  0  0  0  0  0  0
  3  4  1  0  0  0
  4  5  2  0  0  0
  5  6  1  0  0  0
  6  1  1  0  0  0
  1 24  1  0  0  0
 24 25  2  0  0  0
 25 26  1  0  0  0
 26 27  2  0  0  0
 27 28  1  0  0  0
 27 29  1  0  0  0
 29 31  1  0  0  0
 31 33  1  0  0  0
 33 34  2  0  0  0
 34 35  1  0  0  0
 35 36  2  0  0  0
 36 37  1  0  0  0
 37 38  2  0  0  0
 38 39  1  0  0  0
 39 40  2  0  0  0
 39 41  2  0  0  0
 39 42  1  0  0  0
 42 43  1  0  0  0
 42 44  1  0  0  0
 29 30  2  0  0  0
  6  7  2  0  0  0
  7 20  1  0  0  0
 20 21  1  0  0  0
 21 22  1  0  0  0
 21 23  1  0  0  0
  7  8  1  0  0  0
  8  9  2  0  0  0
  9 10  1  0  0  0
 10 11  1  0  0  0
 11 12  1  0  0  0
 12 13  1  0  0  0
 13 16  1  0  0  0
 16 17  1  0  0  0
 17 18  1  0  0  0
 13 14  1  0  0  0
 14 15  1  0  0  0
  9  4  1  0  0  0
 15 10  1  0  0  0
 30 24  1  0  0  0
 38 33  1  0  0  0
  1  2  1  0  0  0
 31 32  1  0  0  0
 18 19  1  0  0  0
M  END
> <minimizedAffinity>
-8.05649

$$$$
Molecule_2


 41 44  0  0  0  0  0  0  0  0999 V2000
   -8.7426   19.6990  -10.0513 C   0  0  0  0  0  0  0  0  0  0  0  0
   -8.5696   20.5555  -11.0684 N   0  0  0  0  0  0  0  0  0  0  0  0
   -7.8069   20.1355  -12.0984 C   0  0  0  0  0  0  0  0  0  0  0  0
   -7.2048   18.9009  -12.1515 C   0  0  0  0  0  0  0  0  0  0  0  0
   -6.2207   18.4623  -13.4893 Cl  0  0  0  0  0  0  0  0  0  0  0  0
   -7.4611   18.0600  -11.0816 C   0  0  0  0  0  0  0  0  0  0  0  0
   -8.2255   18.4623  -10.0410 N   0  0  0  0  0  0  0  0  0  0  0  0
   -9.4127   20.0598   -8.8902 N   0  0  0  0  0  0  0  0  0  0  0  0
  -10.2927   20.5009   -9.1187 H   0  0  0  0  0  0  0  0  0  0  0  0
   -9.0079   16.3587   -5.6614 C   0  0  0  0  0  0  0  0  0  0  0  0
   -9.0889   17.8441   -5.8781 C   0  0  0  0  0  0  0  0  0  0  0  0
   -9.2557   18.2751   -7.2157 C   0  0  0  0  0  0  0  0  0  0  0  0
   -9.2988   19.6236   -7.5668 C   0  0  0  0  0  0  0  0  0  0  0  0
   -9.2604   20.5613   -6.5292 C   0  0  0  0  0  0  0  0  0  0  0  0
   -9.0943   20.1643   -5.2018 C   0  0  0  0  0  0  0  0  0  0  0  0
   -9.0165   18.8013   -4.8415 C   0  0  0  0  0  0  0  0  0  0  0  0
   -8.8175   18.5093   -3.3558 C   0  0  0  0  0  0  0  0  0  0  0  0
   -7.9553   19.5115   -2.5714 C   0  0  0  0  0  0  0  0  0  0  0  0
   -7.7979   19.0593   -1.1192 C   0  0  0  0  0  0  0  0  0  0  0  0
   -9.0986   18.8804   -0.4705 N   0  0  0  0  0  0  0  0  0  0  0  0
   -9.9089   17.8846   -1.1726 C   0  0  0  0  0  0  0  0  0  0  0  0
  -10.1514   18.2616   -2.6336 C   0  0  0  0  0  0  0  0  0  0  0  0
   -9.5976   19.7714   -0.4758 H   0  0  0  0  0  0  0  0  0  0  0  0
   -9.3428   21.9095   -6.8006 O   0  0  0  0  0  0  0  0  0  0  0  0
   -9.4953   22.6776   -5.5868 C   0  0  0  0  0  0  0  0  0  0  0  0
  -10.9770   23.0264   -5.4447 C   0  0  0  0  0  0  0  0  0  0  0  0
   -8.6627   23.9555   -5.6848 C   0  0  0  0  0  0  0  0  0  0  0  0
   -6.8734   16.7577  -11.0512 N   0  0  0  0  0  0  0  0  0  0  0  0
   -6.2714   16.7000  -11.8846 H   0  0  0  0  0  0  0  0  0  0  0  0
   -6.2757   16.1359   -9.9268 C   0  0  0  0  0  0  0  0  0  0  0  0
   -6.2471   16.8029   -8.6882 C   0  0  0  0  0  0  0  0  0  0  0  0
   -5.6873   16.2171   -7.5453 C   0  0  0  0  0  0  0  0  0  0  0  0
   -5.1375   14.9434   -7.6168 C   0  0  0  0  0  0  0  0  0  0  0  0
   -5.1929   14.2372   -8.8172 C   0  0  0  0  0  0  0  0  0  0  0  0
   -5.8025   14.8107   -9.9468 C   0  0  0  0  0  0  0  0  0  0  0  0
   -5.8793   13.8168  -11.4249 S   0  0  0  0  0  0  0  0  0  0  0  0
   -5.6927   14.7160  -12.5523 O   0  0  0  0  0  0  0  0  0  0  0  0
   -4.9695   12.6993  -11.2446 O   0  0  0  0  0  0  0  0  0  0  0  0
   -7.5478   13.1682  -11.5011 C   0  0  0  0  0  0  0  0  0  0  0  0
   -7.5815   11.6530  -11.6660 C   0  0  0  0  0  0  0  0  0  0  0  0
   -8.3963   13.8509  -12.5662 C   0  0  0  0  0  0  0  0  0  0  0  0
 10 11  1  0  0  0
 11 12  2  0  0  0
 12 13  1  0  0  0
 13  8  1  0  0  0
  8  1  1  0  0  0
  1  2  2  0  0  0
  2  3  1  0  0  0
  3  4  2  0  0  0
  4  5  1  0  0  0
  4  6  1  0  0  0
  6 28  1  0  0  0
 28 30  1  0  0  0
 30 31  2  0  0  0
 31 32  1  0  0  0
 32 33  2  0  0  0
 33 34  1  0  0  0
 34 35  2  0  0  0
 35 36  1  0  0  0
 36 37  2  0  0  0
 36 38  2  0  0  0
 36 39  1  0  0  0
 39 40  1  0  0  0
 39 41  1  0  0  0
  6  7  2  0  0  0
 13 14  2  0  0  0
 14 24  1  0  0  0
 24 25  1  0  0  0
 25 26  1  0  0  0
 25 27  1  0  0  0
 14 15  1  0  0  0
 15 16  2  0  0  0
 16 17  1  0  0  0
 17 18  1  0  0  0
 18 19  1  0  0  0
 19 20  1  0  0  0
 20 21  1  0  0  0
 21 22  1  0  0  0
 16 11  1  0  0  0
 22 17  1  0  0  0
  7  1  1  0  0  0
 35 30  1  0  0  0
  8  9  1  0  0  0
 28 29  1  0  0  0
 20 23  1  0  0  0
M  END
> <minimizedAffinity>
-9.69720

$$$$
Molecule_3


 32 35  0  0  0  0  0  0  0  0999 V2000
   -6.2637   14.0855   -9.7218 O   0  0  0  0  0  0  0  0  0  0  0  0
   -7.3090   14.5715  -10.1377 C   0  0  0  0  0  0  0  0  0  0  0  0
   -7.4775   15.0204  -11.4280 N   0  0  0  0  0  0  0  0  0  0  0  0
   -8.3422   15.4750  -11.6930 H   0  0  0  0  0  0  0  0  0  0  0  0
   -8.5563   14.7280   -9.2925 C   0  0  0  0  0  0  0  0  0  0  0  0
   -8.2733   15.2326   -7.8776 C   0  0  0  0  0  0  0  0  0  0  0  0
   -9.4198   16.0168   -7.2282 C   0  0  0  0  0  0  0  0  0  0  0  0
   -8.9891   17.2836   -6.6412 N   0  0  0  0  0  0  0  0  0  0  0  0
   -8.5716   17.9016   -7.3275 H   0  0  0  0  0  0  0  0  0  0  0  0
   -9.6830   17.9427   -5.6191 C   0  0  0  0  0  0  0  0  0  0  0  0
  -10.1952   17.2490   -4.5211 C   0  0  0  0  0  0  0  0  0  0  0  0
  -10.8525   17.9440   -3.5246 C   0  0  0  0  0  0  0  0  0  0  0  0
  -11.0200   19.2779   -3.5246 N   0  0  0  0  0  0  0  0  0  0  0  0
  -10.4848   19.9741   -4.5350 C   0  0  0  0  0  0  0  0  0  0  0  0
  -10.6298   21.3526   -4.5013 C   0  0  0  0  0  0  0  0  0  0  0  0
  -10.0890   22.1622   -5.4949 C   0  0  0  0  0  0  0  0  0  0  0  0
  -10.2892   23.8691   -5.4154 Cl  0  0  0  0  0  0  0  0  0  0  0  0
   -9.3824   21.6001   -6.5463 C   0  0  0  0  0  0  0  0  0  0  0  0
   -9.2294   20.2145   -6.6015 C   0  0  0  0  0  0  0  0  0  0  0  0
   -9.7847   19.3669   -5.6083 C   0  0  0  0  0  0  0  0  0  0  0  0
   -6.3918   15.0124  -12.3923 C   0  0  0  0  0  0  0  0  0  0  0  0
   -5.5426   16.2822  -12.3076 C   0  0  0  0  0  0  0  0  0  0  0  0
   -6.3260   17.5131  -12.7080 C   0  0  0  0  0  0  0  0  0  0  0  0
   -6.4423   17.8306  -14.0734 C   0  0  0  0  0  0  0  0  0  0  0  0
   -7.1628   18.9478  -14.4784 C   0  0  0  0  0  0  0  0  0  0  0  0
   -7.7754   19.7527  -13.5238 C   0  0  0  0  0  0  0  0  0  0  0  0
   -7.6728   19.4399  -12.1584 C   0  0  0  0  0  0  0  0  0  0  0  0
   -8.2904   20.2392  -11.1873 C   0  0  0  0  0  0  0  0  0  0  0  0
   -8.1791   19.9084   -9.8438 C   0  0  0  0  0  0  0  0  0  0  0  0
   -7.4514   18.7828   -9.5161 C   0  0  0  0  0  0  0  0  0  0  0  0
   -6.8429   17.9873  -10.4234 N   0  0  0  0  0  0  0  0  0  0  0  0
   -6.9436   18.3064  -11.7319 C   0  0  0  0  0  0  0  0  0  0  0  0
  1  2  2  0  0  0
  2  5  1  0  0  0
  5  6  1  0  0  0
  6  7  1  0  0  0
  7  8  1  0  0  0
  8 10  1  0  0  0
 10 11  2  0  0  0
 11 12  1  0  0  0
 12 13  2  0  0  0
 13 14  1  0  0  0
 14 15  2  0  0  0
 15 16  1  0  0  0
 16 17  1  0  0  0
 16 18  2  0  0  0
 18 19  1  0  0  0
 19 20  2  0  0  0
  2  3  1  0  0  0
  3 21  1  0  0  0
 21 22  1  0  0  0
 22 23  1  0  0  0
 23 24  2  0  0  0
 24 25  1  0  0  0
 25 26  2  0  0  0
 26 27  1  0  0  0
 27 28  2  0  0  0
 28 29  1  0  0  0
 29 30  2  0  0  0
 30 31  1  0  0  0
 31 32  2  0  0  0
 20 10  1  0  0  0
 32 23  1  0  0  0
 20 14  1  0  0  0
 32 27  1  0  0  0
  8  9  1  0  0  0
  3  4  1  0  0  0
M  END
> <minimizedAffinity>
-8.38030

$$$$
Molecule_4


 32 34  0  0  0  0  0  0  0  0999 V2000
   -7.4195   17.1897  -10.1074 C   0  0  0  0  0  0  0  0  0  0  0  0
   -7.5877   14.6879  -10.8722 C   0  0  0  0  0  0  0  0  0  0  0  0
   -7.3565   13.3296  -10.5500 C   0  0  0  0  0  0  0  0  0  0  0  0
   -6.8291   12.9357   -9.3162 C   0  0  0  0  0  0  0  0  0  0  0  0
   -6.5062   13.9144   -8.3681 C   0  0  0  0  0  0  0  0  0  0  0  0
   -6.7188   15.2615   -8.6787 C   0  0  0  0  0  0  0  0  0  0  0  0
   -7.2605   15.6779   -9.9195 C   0  0  0  0  0  0  0  0  0  0  0  0
   -9.0977   13.8629  -12.7317 C   0  0  0  0  0  0  0  0  0  0  0  0
   -8.1618   14.9641  -12.2456 C   0  0  0  0  0  0  0  0  0  0  0  0
   -6.5947   11.6341   -8.9490 O   0  0  0  0  0  0  0  0  0  0  0  0
   -5.6232   10.9036   -9.6825 C   0  0  0  0  0  0  0  0  0  0  0  0
   -5.9909   13.4611   -7.1788 O   0  0  0  0  0  0  0  0  0  0  0  0
   -6.0124   14.3498   -6.0707 C   0  0  0  0  0  0  0  0  0  0  0  0
   -7.6571   17.8379   -8.8207 N   0  0  0  0  0  0  0  0  0  0  0  0
   -8.6612   18.7678   -8.6511 C   0  0  0  0  0  0  0  0  0  0  0  0
   -9.3079   19.2485   -9.5741 O   0  0  0  0  0  0  0  0  0  0  0  0
   -7.1226   17.5338   -8.0225 H   0  0  0  0  0  0  0  0  0  0  0  0
   -8.9152   19.2172   -7.2545 C   0  0  0  0  0  0  0  0  0  0  0  0
   -8.5879   18.3493   -6.2056 C   0  0  0  0  0  0  0  0  0  0  0  0
   -8.8041   18.7284   -4.8755 C   0  0  0  0  0  0  0  0  0  0  0  0
   -9.3418   19.9826   -4.5843 C   0  0  0  0  0  0  0  0  0  0  0  0
   -9.6523   20.8549   -5.6321 C   0  0  0  0  0  0  0  0  0  0  0  0
   -9.4360   20.4821   -6.9623 C   0  0  0  0  0  0  0  0  0  0  0  0
   -9.6039   20.4762   -3.3364 O   0  0  0  0  0  0  0  0  0  0  0  0
  -10.1980   21.7669   -3.2676 C   0  0  0  0  0  0  0  0  0  0  0  0
   -6.2744   17.8649  -10.8954 C   0  0  0  0  0  0  0  0  0  0  0  0
   -6.7065   18.3756  -12.2525 C   0  0  0  0  0  0  0  0  0  0  0  0
   -6.3321   17.6906  -13.4170 C   0  0  0  0  0  0  0  0  0  0  0  0
   -6.7087   18.1699  -14.6725 C   0  0  0  0  0  0  0  0  0  0  0  0
   -7.4576   19.3399  -14.7772 C   0  0  0  0  0  0  0  0  0  0  0  0
   -7.8292   20.0323  -13.6269 C   0  0  0  0  0  0  0  0  0  0  0  0
   -7.4561   19.5533  -12.3704 C   0  0  0  0  0  0  0  0  0  0  0  0
  8  9  1  0  0  0
  9  2  1  0  0  0
  2  3  2  0  0  0
  3  4  1  0  0  0
  4 10  1  0  0  0
 10 11  1  0  0  0
  4  5  2  0  0  0
  5 12  1  0  0  0
 12 13  1  0  0  0
  5  6  1  0  0  0
  6  7  2  0  0  0
  7  1  1  0  0  0
  1 26  1  0  0  0
 26 27  1  0  0  0
 27 28  2  0  0  0
 28 29  1  0  0  0
 29 30  2  0  0  0
 30 31  1  0  0  0
 31 32  2  0  0  0
  1 14  1  0  0  0
 14 15  1  0  0  0
 15 16  2  0  0  0
 15 18  1  0  0  0
 18 19  2  0  0  0
 19 20  1  0  0  0
 20 21  2  0  0  0
 21 24  1  0  0  0
 24 25  1  0  0  0
 21 22  1  0  0  0
 22 23  2  0  0  0
  7  2  1  0  0  0
 32 27  1  0  0  0
 23 18  1  0  0  0
 14 17  1  0  0  0
M  END
> <minimizedAffinity>
-8.25735

$$$$
Molecule_5


 29 32  0  0  0  0  0  0  0  0999 V2000
   -9.3527   17.7195   -7.2839 C   0  0  0  0  0  0  0  0  0  0  0  0
   -9.2301   18.2961   -8.4574 N   0  0  0  0  0  0  0  0  0  0  0  0
   -9.2329   19.6521   -8.2559 N   0  0  0  0  0  0  0  0  0  0  0  0
   -9.3621   19.8756   -6.9613 C   0  0  0  0  0  0  0  0  0  0  0  0
   -9.4434   18.6686   -6.3041 N   0  0  0  0  0  0  0  0  0  0  0  0
   -9.5966   18.4828   -4.8842 C   0  0  0  0  0  0  0  0  0  0  0  0
   -9.4083   21.1782   -6.3721 C   0  0  0  0  0  0  0  0  0  0  0  0
   -9.1822   22.3974   -6.9927 C   0  0  0  0  0  0  0  0  0  0  0  0
   -9.3392   23.4122   -6.0151 C   0  0  0  0  0  0  0  0  0  0  0  0
   -9.2494   24.8146   -5.9945 C   0  0  0  0  0  0  0  0  0  0  0  0
   -9.4846   25.4844   -4.7850 C   0  0  0  0  0  0  0  0  0  0  0  0
   -9.8012   24.7793   -3.6205 C   0  0  0  0  0  0  0  0  0  0  0  0
   -9.8940   23.3836   -3.6226 C   0  0  0  0  0  0  0  0  0  0  0  0
   -9.6554   22.7486   -4.8388 C   0  0  0  0  0  0  0  0  0  0  0  0
   -9.6966   21.4061   -5.0501 O   0  0  0  0  0  0  0  0  0  0  0  0
   -9.3981   16.0159   -7.0096 S   0  0  0  0  0  0  0  0  0  0  0  0
   -7.6550   15.6754   -6.6321 C   0  0  0  0  0  0  0  0  0  0  0  0
   -7.1508   15.7295   -9.0129 N   0  0  0  0  0  0  0  0  0  0  0  0
   -6.7553   16.1643   -7.7570 C   0  0  0  0  0  0  0  0  0  0  0  0
   -5.7871   16.8789   -7.5075 O   0  0  0  0  0  0  0  0  0  0  0  0
   -7.8695   15.0073   -9.0216 H   0  0  0  0  0  0  0  0  0  0  0  0
   -5.1217   13.9950  -10.1771 C   0  0  0  0  0  0  0  0  0  0  0  0
   -5.6257   15.2430  -10.8533 C   0  0  0  0  0  0  0  0  0  0  0  0
   -5.0702   15.5837  -12.1009 C   0  0  0  0  0  0  0  0  0  0  0  0
   -5.4769   16.7330  -12.7734 C   0  0  0  0  0  0  0  0  0  0  0  0
   -6.4412   17.5521  -12.2015 C   0  0  0  0  0  0  0  0  0  0  0  0
   -6.9518   18.9694  -13.0363 Cl  0  0  0  0  0  0  0  0  0  0  0  0
   -7.0002   17.2354  -10.9624 C   0  0  0  0  0  0  0  0  0  0  0  0
   -6.5989   16.0862  -10.2684 C   0  0  0  0  0  0  0  0  0  0  0  0
 22 23  1  0  0  0
 23 24  2  0  0  0
 24 25  1  0  0  0
 25 26  2  0  0  0
 26 27  1  0  0  0
 26 28  1  0  0  0
 28 29  2  0  0  0
 29 18  1  0  0  0
 18 19  1  0  0  0
 19 20  2  0  0  0
 19 17  1  0  0  0
 17 16  1  0  0  0
 16  1  1  0  0  0
  1  2  2  0  0  0
  2  3  1  0  0  0
  3  4  2  0  0  0
  4  7  1  0  0  0
  7  8  2  0  0  0
  8  9  1  0  0  0
  9 10  2  0  0  0
 10 11  1  0  0  0
 11 12  2  0  0  0
 12 13  1  0  0  0
 13 14  2  0  0  0
 14 15  1  0  0  0
  4  5  1  0  0  0
  5  6  1  0  0  0
 29 23  1  0  0  0
  5  1  1  0  0  0
 15  7  1  0  0  0
 14  9  1  0  0  0
 18 21  1  0  0  0
M  END
> <minimizedAffinity>
-8.21039

$$$$
Molecule_6


 30 32  0  0  0  0  0  0  0  0999 V2000
   -6.3581   18.2289  -12.7064 C   0  0  0  0  0  0  0  0  0  0  0  0
   -6.7613   18.5251  -14.0215 C   0  0  0  0  0  0  0  0  0  0  0  0
   -7.6935   19.5324  -14.2648 C   0  0  0  0  0  0  0  0  0  0  0  0
   -8.2217   20.2551  -13.2012 C   0  0  0  0  0  0  0  0  0  0  0  0
   -7.8204   19.9709  -11.8930 C   0  0  0  0  0  0  0  0  0  0  0  0
   -6.8858   18.9595  -11.6159 C   0  0  0  0  0  0  0  0  0  0  0  0
   -4.2506   17.3529  -11.9790 O   0  0  0  0  0  0  0  0  0  0  0  0
   -5.3559   17.1540  -12.4639 C   0  0  0  0  0  0  0  0  0  0  0  0
   -5.8619   15.9422  -12.8066 O   0  0  0  0  0  0  0  0  0  0  0  0
   -6.1077   15.0623  -11.6996 C   0  0  0  0  0  0  0  0  0  0  0  0
   -7.6191   15.0610  -11.4427 C   0  0  0  0  0  0  0  0  0  0  0  0
   -8.1881   13.8803  -10.6547 C   0  0  0  0  0  0  0  0  0  0  0  0
   -7.4273   13.4796   -9.3902 C   0  0  0  0  0  0  0  0  0  0  0  0
   -5.9513   13.1167   -9.5694 C   0  0  0  0  0  0  0  0  0  0  0  0
   -5.5979   12.7630  -10.9241 N   0  0  0  0  0  0  0  0  0  0  0  0
   -5.5783   13.6427  -11.9786 C   0  0  0  0  0  0  0  0  0  0  0  0
   -5.1704   13.2717  -13.0775 O   0  0  0  0  0  0  0  0  0  0  0  0
   -5.2031   11.8514  -11.1260 H   0  0  0  0  0  0  0  0  0  0  0  0
   -6.5095   18.6679  -10.2853 N   0  0  0  0  0  0  0  0  0  0  0  0
   -5.5171   18.8539  -10.1053 H   0  0  0  0  0  0  0  0  0  0  0  0
   -7.1197   17.9050   -9.2752 C   0  0  0  0  0  0  0  0  0  0  0  0
   -8.4998   17.8722   -9.0583 C   0  0  0  0  0  0  0  0  0  0  0  0
   -9.0484   17.1280   -8.0063 C   0  0  0  0  0  0  0  0  0  0  0  0
   -8.2222   16.4160   -7.1343 C   0  0  0  0  0  0  0  0  0  0  0  0
   -6.8432   16.4338   -7.3464 C   0  0  0  0  0  0  0  0  0  0  0  0
   -6.3008   17.1780   -8.4003 C   0  0  0  0  0  0  0  0  0  0  0  0
   -8.9618   15.4801   -5.8120 S   0  0  0  0  0  0  0  0  0  0  0  0
   -9.5912   16.8326   -4.7946 C   0  0  0  0  0  0  0  0  0  0  0  0
  -10.8146   17.2306   -5.2291 F   0  0  0  0  0  0  0  0  0  0  0  0
   -8.7755   17.9125   -4.9126 F   0  0  0  0  0  0  0  0  0  0  0  0
  7  8  2  0  0  0
  8  9  1  0  0  0
  9 10  1  0  0  0
 10 11  1  0  0  0
 11 12  1  0  0  0
 12 13  1  0  0  0
 13 14  1  0  0  0
 14 15  1  0  0  0
 15 16  1  0  0  0
 16 17  2  0  0  0
  8  1  1  0  0  0
  1  2  2  0  0  0
  2  3  1  0  0  0
  3  4  2  0  0  0
  4  5  1  0  0  0
  5  6  2  0  0  0
  6 19  1  0  0  0
 19 21  1  0  0  0
 21 22  2  0  0  0
 22 23  1  0  0  0
 23 24  2  0  0  0
 24 27  1  0  0  0
 27 28  1  0  0  0
 28 29  1  0  0  0
 28 30  1  0  0  0
 24 25  1  0  0  0
 25 26  2  0  0  0
 16 10  1  0  0  0
  6  1  1  0  0  0
 26 21  1  0  0  0
 15 18  1  0  0  0
 19 20  1  0  0  0
M  END
> <minimizedAffinity>
-7.59712

$$$$
Molecule_7


 30 34  0  0  0  0  0  0  0  0999 V2000
   -9.3180   18.0620   -7.7648 S   0  0  0  0  0  0  0  0  0  0  0  0
   -9.3349   19.5886   -6.9281 C   0  0  0  0  0  0  0  0  0  0  0  0
   -9.1180   20.7376   -7.5383 N   0  0  0  0  0  0  0  0  0  0  0  0
   -9.3493   21.6853   -6.5910 C   0  0  0  0  0  0  0  0  0  0  0  0
   -9.7420   21.1224   -5.3954 C   0  0  0  0  0  0  0  0  0  0  0  0
   -9.7073   19.7482   -5.5924 N   0  0  0  0  0  0  0  0  0  0  0  0
   -9.9385   21.8861   -4.1285 C   0  0  0  0  0  0  0  0  0  0  0  0
   -9.9990   23.4022   -4.4185 C   0  0  0  0  0  0  0  0  0  0  0  0
   -8.9608   23.8573   -5.4599 C   0  0  0  0  0  0  0  0  0  0  0  0
   -9.1572   23.1422   -6.8076 C   0  0  0  0  0  0  0  0  0  0  0  0
   -9.9410   18.7479   -4.6091 C   0  0  0  0  0  0  0  0  0  0  0  0
  -11.2179   18.1931   -4.4609 C   0  0  0  0  0  0  0  0  0  0  0  0
  -11.4499   17.2197   -3.4864 C   0  0  0  0  0  0  0  0  0  0  0  0
  -10.4128   16.7983   -2.6567 C   0  0  0  0  0  0  0  0  0  0  0  0
   -9.1402   17.3473   -2.8008 C   0  0  0  0  0  0  0  0  0  0  0  0
   -8.9008   18.3196   -3.7744 C   0  0  0  0  0  0  0  0  0  0  0  0
   -7.6138   18.0336   -8.4501 C   0  0  0  0  0  0  0  0  0  0  0  0
   -6.9571   16.6804   -8.1946 C   0  0  0  0  0  0  0  0  0  0  0  0
   -7.5517   15.5123   -8.7055 C   0  0  0  0  0  0  0  0  0  0  0  0
   -6.9656   14.2614   -8.5000 C   0  0  0  0  0  0  0  0  0  0  0  0
   -5.7764   14.1574   -7.7829 C   0  0  0  0  0  0  0  0  0  0  0  0
   -5.1686   15.3040   -7.2765 C   0  0  0  0  0  0  0  0  0  0  0  0
   -5.7522   16.5557   -7.4823 C   0  0  0  0  0  0  0  0  0  0  0  0
   -8.5095   19.1922  -10.4240 O   0  0  0  0  0  0  0  0  0  0  0  0
   -7.6571   18.4520   -9.9335 C   0  0  0  0  0  0  0  0  0  0  0  0
   -6.6300   17.9044  -10.6931 N   0  0  0  0  0  0  0  0  0  0  0  0
   -5.8316   17.5340  -10.1709 H   0  0  0  0  0  0  0  0  0  0  0  0
   -6.4303   18.2561  -12.0620 C   0  0  0  0  0  0  0  0  0  0  0  0
   -5.1268   17.9503  -12.7473 C   0  0  0  0  0  0  0  0  0  0  0  0
   -6.3659   17.1922  -13.1244 C   0  0  0  0  0  0  0  0  0  0  0  0
 24 25  2  0  0  0
 25 26  1  0  0  0
 26 28  1  0  0  0
 28 29  1  0  0  0
 29 30  1  0  0  0
 25 17  1  0  0  0
 17  1  1  0  0  0
  1  2  1  0  0  0
  2  3  2  0  0  0
  3  4  1  0  0  0
  4  5  2  0  0  0
  5  6  1  0  0  0
  6 11  1  0  0  0
 11 12  2  0  0  0
 12 13  1  0  0  0
 13 14  2  0  0  0
 14 15  1  0  0  0
 15 16  2  0  0  0
  5  7  1  0  0  0
  7  8  1  0  0  0
  8  9  1  0  0  0
  9 10  1  0  0  0
 17 18  1  0  0  0
 18 19  2  0  0  0
 19 20  1  0  0  0
 20 21  2  0  0  0
 21 22  1  0  0  0
 22 23  2  0  0  0
 30 28  1  0  0  0
  6  2  1  0  0  0
 16 11  1  0  0  0
 23 18  1  0  0  0
 10  4  1  0  0  0
 26 27  1  0  0  0
M  END
> <minimizedAffinity>
-8.00269

$$$$
Molecule_8


 32 34  0  0  0  0  0  0  0  0999 V2000
   -7.8735   16.2092   -6.9440 N   0  0  0  0  0  0  0  0  0  0  0  0
   -8.1866   15.1881   -7.8130 C   0  0  0  0  0  0  0  0  0  0  0  0
   -9.2069   14.5052   -7.7124 O   0  0  0  0  0  0  0  0  0  0  0  0
   -7.1473   16.8603   -7.2125 H   0  0  0  0  0  0  0  0  0  0  0  0
   -8.7961   16.6443   -5.9201 C   0  0  0  0  0  0  0  0  0  0  0  0
  -10.3606   22.9954   -5.3995 C   0  0  0  0  0  0  0  0  0  0  0  0
  -10.5428   22.3727   -4.1670 C   0  0  0  0  0  0  0  0  0  0  0  0
  -10.2777   21.0059   -4.0245 C   0  0  0  0  0  0  0  0  0  0  0  0
   -9.8268   20.2406   -5.1110 C   0  0  0  0  0  0  0  0  0  0  0  0
   -9.5561   18.8672   -4.9814 C   0  0  0  0  0  0  0  0  0  0  0  0
   -9.1109   18.1092   -6.0751 C   0  0  0  0  0  0  0  0  0  0  0  0
   -8.9224   18.7446   -7.3075 C   0  0  0  0  0  0  0  0  0  0  0  0
   -9.1874   20.1080   -7.4499 C   0  0  0  0  0  0  0  0  0  0  0  0
   -9.6408   20.8681   -6.3612 C   0  0  0  0  0  0  0  0  0  0  0  0
   -9.9116   22.2407   -6.4871 C   0  0  0  0  0  0  0  0  0  0  0  0
   -9.4376   25.1197   -5.9374 C   0  0  0  0  0  0  0  0  0  0  0  0
  -10.5815   24.3172   -5.6739 O   0  0  0  0  0  0  0  0  0  0  0  0
   -7.1409   14.9353   -8.9211 C   0  0  0  0  0  0  0  0  0  0  0  0
   -7.3553   15.9605   -9.9393 N   0  0  0  0  0  0  0  0  0  0  0  0
   -6.7353   17.1849   -9.8903 C   0  0  0  0  0  0  0  0  0  0  0  0
   -5.9888   17.5385   -8.9881 O   0  0  0  0  0  0  0  0  0  0  0  0
   -7.9427   15.7021  -10.7271 H   0  0  0  0  0  0  0  0  0  0  0  0
   -7.0545   18.0888  -11.0151 C   0  0  0  0  0  0  0  0  0  0  0  0
   -7.9678   19.1315  -10.7920 C   0  0  0  0  0  0  0  0  0  0  0  0
   -8.2817   20.0180  -11.8229 C   0  0  0  0  0  0  0  0  0  0  0  0
   -7.6861   19.8680  -13.0743 C   0  0  0  0  0  0  0  0  0  0  0  0
   -6.7776   18.8305  -13.2980 C   0  0  0  0  0  0  0  0  0  0  0  0
   -6.4570   17.9368  -12.2702 C   0  0  0  0  0  0  0  0  0  0  0  0
   -5.3721   16.6460  -12.6422 Cl  0  0  0  0  0  0  0  0  0  0  0  0
   -7.2050   13.5152   -9.5314 C   0  0  0  0  0  0  0  0  0  0  0  0
   -5.8743   12.7618   -9.4376 C   0  0  0  0  0  0  0  0  0  0  0  0
   -7.7038   13.5204  -10.9779 C   0  0  0  0  0  0  0  0  0  0  0  0
 16 17  1  0  0  0
 17  6  1  0  0  0
  6  7  2  0  0  0
  7  8  1  0  0  0
  8  9  2  0  0  0
  9 10  1  0  0  0
 10 11  2  0  0  0
 11  5  1  0  0  0
  5  1  1  0  0  0
  1  2  1  0  0  0
  2  3  2  0  0  0
  2 18  1  0  0  0
 18 19  1  0  0  0
 19 20  1  0  0  0
 20 21  2  0  0  0
 20 23  1  0  0  0
 23 24  2  0  0  0
 24 25  1  0  0  0
 25 26  2  0  0  0
 26 27  1  0  0  0
 27 28  2  0  0  0
 28 29  1  0  0  0
 18 30  1  0  0  0
 30 31  1  0  0  0
 30 32  1  0  0  0
 11 12  1  0  0  0
 12 13  2  0  0  0
 13 14  1  0  0  0
 14 15  2  0  0  0
 15  6  1  0  0  0
 14  9  1  0  0  0
 28 23  1  0  0  0
  1  4  1  0  0  0
 19 22  1  0  0  0
M  END
> <minimizedAffinity>
-8.92113

$$$$
Molecule_9


 24 26  0  0  0  0  0  0  0  0999 V2000
   -6.3823   16.9120  -11.1632 C   0  0  0  0  0  0  0  0  0  0  0  0
   -6.6291   16.7207   -9.7882 C   0  0  0  0  0  0  0  0  0  0  0  0
   -7.3109   17.7191   -9.0971 C   0  0  0  0  0  0  0  0  0  0  0  0
   -7.7999   18.8421   -9.7705 C   0  0  0  0  0  0  0  0  0  0  0  0
   -7.6117   19.0251  -11.1291 C   0  0  0  0  0  0  0  0  0  0  0  0
   -8.1241   20.1296  -11.6930 N   0  0  0  0  0  0  0  0  0  0  0  0
   -7.9319   20.3252  -13.0143 C   0  0  0  0  0  0  0  0  0  0  0  0
   -7.2357   19.4506  -13.8199 C   0  0  0  0  0  0  0  0  0  0  0  0
   -6.7077   18.3069  -13.2315 C   0  0  0  0  0  0  0  0  0  0  0  0
   -6.8848   18.0562  -11.8500 C   0  0  0  0  0  0  0  0  0  0  0  0
   -5.0012   15.1442  -12.4671 N   0  0  0  0  0  0  0  0  0  0  0  0
   -5.6062   15.9443  -11.8844 C   0  0  0  0  0  0  0  0  0  0  0  0
   -6.1152   15.5682   -9.1015 N   0  0  0  0  0  0  0  0  0  0  0  0
   -5.1315   15.3041   -9.2131 H   0  0  0  0  0  0  0  0  0  0  0  0
   -7.0685   14.2307   -8.7149 S   0  0  0  0  0  0  0  0  0  0  0  0
   -6.1963   13.2448   -8.1185 O   0  0  0  0  0  0  0  0  0  0  0  0
   -8.2337   14.6997   -7.9933 O   0  0  0  0  0  0  0  0  0  0  0  0
   -7.6143   13.6111  -10.2624 C   0  0  0  0  0  0  0  0  0  0  0  0
   -8.7361   14.1732  -10.8820 C   0  0  0  0  0  0  0  0  0  0  0  0
   -9.1581   13.6763  -12.1113 C   0  0  0  0  0  0  0  0  0  0  0  0
   -8.4426   12.6348  -12.6747 C   0  0  0  0  0  0  0  0  0  0  0  0
   -7.3591   12.0753  -12.0952 N   0  0  0  0  0  0  0  0  0  0  0  0
   -6.9711   12.5653  -10.8917 C   0  0  0  0  0  0  0  0  0  0  0  0
   -5.5682   11.7660  -10.3047 Cl  0  0  0  0  0  0  0  0  0  0  0  0
 11 12  3  0  0  0
 12  1  1  0  0  0
  1  2  2  0  0  0
  2 13  1  0  0  0
 13 15  1  0  0  0
 15 16  2  0  0  0
 15 17  2  0  0  0
 15 18  1  0  0  0
 18 19  2  0  0  0
 19 20  1  0  0  0
 20 21  2  0  0  0
 21 22  1  0  0  0
 22 23  2  0  0  0
 23 24  1  0  0  0
  2  3  1  0  0  0
  3  4  2  0  0  0
  4  5  1  0  0  0
  5  6  2  0  0  0
  6  7  1  0  0  0
  7  8  2  0  0  0
  8  9  1  0  0  0
  9 10  2  0  0  0
 10  1  1  0  0  0
 23 18  1  0  0  0
 10  5  1  0  0  0
 13 14  1  0  0  0
M  END
> <minimizedAffinity>
-8.15378

$$$$
