
     RDKit          3D

 50 51  0  0  0  0  0  0  0  0999 V2000
    0.6093   -3.4837   -1.6348 C   0  0  0  0  0  0  0  0  0  0  0  0
    0.2195   -2.1629   -1.0374 C   0  0  0  0  0  0  0  0  0  0  0  0
    0.4105   -1.0882   -1.5983 O   0  0  0  0  0  0  0  0  0  0  0  0
   -0.6201   -2.2793    0.5093 S   0  0  0  0  0  0  0  0  0  0  0  0
   -0.3764   -0.5713    1.1007 C   0  0  0  0  0  0  0  0  0  0  0  0
   -1.3795    0.4107    0.4751 C   0  0  1  0  0  0  0  0  0  0  0  0
   -2.5711    0.6441    1.4165 C   0  0  0  0  0  0  0  0  0  0  0  0
   -3.7749    1.2014    0.6905 C   0  0  0  0  0  0  0  0  0  0  0  0
   -3.9965    2.5828    0.6295 C   0  0  0  0  0  0  0  0  0  0  0  0
   -5.0975    3.0910   -0.0595 C   0  0  0  0  0  0  0  0  0  0  0  0
   -5.9842    2.2247   -0.6972 C   0  0  0  0  0  0  0  0  0  0  0  0
   -5.7702    0.8486   -0.6467 C   0  0  0  0  0  0  0  0  0  0  0  0
   -4.6705    0.3383    0.0425 C   0  0  0  0  0  0  0  0  0  0  0  0
   -0.6209    1.7018    0.1872 C   0  0  0  0  0  0  0  0  0  0  0  0
   -0.5981    2.6611    0.9518 O   0  0  0  0  0  0  0  0  0  0  0  0
    0.1003    1.6607   -0.9899 N   0  0  0  0  0  0  0  0  0  0  0  0
    1.0749    2.6919   -1.3142 C   0  0  0  0  0  0  0  0  0  0  0  0
    2.5037    2.3540   -0.8817 C   0  0  0  0  0  0  0  0  0  0  0  0
    3.4558    3.1133   -1.0213 O   0  0  0  0  0  0  0  0  0  0  0  0
    2.5919    1.0964   -0.3771 O   0  0  0  0  0  0  0  0  0  0  0  0
    3.9108    0.7010    0.0043 C   0  0  0  0  0  0  0  0  0  0  0  0
    3.8291   -0.7368    0.4499 C   0  0  0  0  0  0  0  0  0  0  0  0
    4.0923   -1.7793   -0.4497 C   0  0  0  0  0  0  0  0  0  0  0  0
    3.9849   -3.1096   -0.0436 C   0  0  0  0  0  0  0  0  0  0  0  0
    3.5991   -3.4118    1.2606 C   0  0  0  0  0  0  0  0  0  0  0  0
    3.3212   -2.3841    2.1610 C   0  0  0  0  0  0  0  0  0  0  0  0
    3.4346   -1.0529    1.7587 C   0  0  0  0  0  0  0  0  0  0  0  0
    1.0027   -4.1627   -0.8725 H   0  0  0  0  0  0  0  0  0  0  0  0
   -0.2545   -3.9370   -2.1321 H   0  0  0  0  0  0  0  0  0  0  0  0
    1.3995   -3.3202   -2.3729 H   0  0  0  0  0  0  0  0  0  0  0  0
   -0.4817   -0.5909    2.1917 H   0  0  0  0  0  0  0  0  0  0  0  0
    0.6630   -0.2912    0.9096 H   0  0  0  0  0  0  0  0  0  0  0  0
   -1.7495    0.0365   -0.4872 H   0  0  0  0  0  0  0  0  0  0  0  0
   -2.8733   -0.3025    1.8843 H   0  0  0  0  0  0  0  0  0  0  0  0
   -2.3033    1.3076    2.2487 H   0  0  0  0  0  0  0  0  0  0  0  0
   -3.3103    3.2728    1.1167 H   0  0  0  0  0  0  0  0  0  0  0  0
   -5.2608    4.1647   -0.1009 H   0  0  0  0  0  0  0  0  0  0  0  0
   -6.8429    2.6230   -1.2329 H   0  0  0  0  0  0  0  0  0  0  0  0
   -6.4602    0.1724   -1.1453 H   0  0  0  0  0  0  0  0  0  0  0  0
   -4.5157   -0.7380    0.0714 H   0  0  0  0  0  0  0  0  0  0  0  0
    0.2515    0.7404   -1.4105 H   0  0  0  0  0  0  0  0  0  0  0  0
    0.7856    3.6374   -0.8449 H   0  0  0  0  0  0  0  0  0  0  0  0
    1.0699    2.7954   -2.4031 H   0  0  0  0  0  0  0  0  0  0  0  0
    4.6026    0.7961   -0.8430 H   0  0  0  0  0  0  0  0  0  0  0  0
    4.2726    1.3299    0.8268 H   0  0  0  0  0  0  0  0  0  0  0  0
    4.3824   -1.5589   -1.4730 H   0  0  0  0  0  0  0  0  0  0  0  0
    4.2020   -3.9109   -0.7447 H   0  0  0  0  0  0  0  0  0  0  0  0
    3.5167   -4.4470    1.5760 H   0  0  0  0  0  0  0  0  0  0  0  0
    3.0170   -2.6189    3.1785 H   0  0  0  0  0  0  0  0  0  0  0  0
    3.2088   -0.2598    2.4681 H   0  0  0  0  0  0  0  0  0  0  0  0
  1  2  1  0
  2  3  2  0
  2  4  1  0
  4  5  1  0
  5  6  1  0
  6  7  1  0
  7  8  1  0
  8  9  2  0
  9 10  1  0
 10 11  2  0
 11 12  1  0
 12 13  2  0
  6 14  1  0
 14 15  2  0
 14 16  1  0
 16 17  1  0
 17 18  1  0
 18 19  2  0
 18 20  1  0
 20 21  1  0
 21 22  1  0
 22 23  2  0
 23 24  1  0
 24 25  2  0
 25 26  1  0
 26 27  2  0
 13  8  1  0
 27 22  1  0
  1 28  1  0
  1 29  1  0
  1 30  1  0
  5 31  1  0
  5 32  1  0
  6 33  1  6
  7 34  1  0
  7 35  1  0
  9 36  1  0
 10 37  1  0
 11 38  1  0
 12 39  1  0
 13 40  1  0
 16 41  1  0
 17 42  1  0
 17 43  1  0
 21 44  1  0
 21 45  1  0
 23 46  1  0
 24 47  1  0
 25 48  1  0
 26 49  1  0
 27 50  1  0
M  END
$$$$
