
     RDKit          3D

 44 47  0  0  0  0  0  0  0  0999 V2000
   -7.5672   -0.2254    2.3969 N   0  0  0  0  0  0  0  0  0  0  0  0
   -6.7572   -0.2660    1.5670 C   0  0  0  0  0  0  0  0  0  0  0  0
   -5.7689   -0.3100    0.5291 C   0  0  0  0  0  0  0  0  0  0  0  0
   -6.1643   -0.3957   -0.8106 C   0  0  0  0  0  0  0  0  0  0  0  0
   -5.2060   -0.4471   -1.8246 C   0  0  0  0  0  0  0  0  0  0  0  0
   -3.8472   -0.4047   -1.5055 C   0  0  0  0  0  0  0  0  0  0  0  0
   -3.4438   -0.3022   -0.1668 C   0  0  0  0  0  0  0  0  0  0  0  0
   -2.0044   -0.2638    0.2204 C   0  0  0  0  0  0  0  0  0  0  0  0
   -1.6849   -0.6465    1.3389 O   0  0  0  0  0  0  0  0  0  0  0  0
   -1.1501    0.2796   -0.7280 N   0  0  0  0  0  0  0  0  0  0  0  0
    0.2081    0.4351   -0.4690 C   0  0  0  0  0  0  0  0  0  0  0  0
    0.9893    1.4924   -0.8831 C   0  0  0  0  0  0  0  0  0  0  0  0
    2.2227    1.3621   -0.1971 C   0  0  0  0  0  0  0  0  0  0  0  0
    3.3738    2.2745   -0.2139 C   0  0  0  0  0  0  0  0  0  0  0  0
    4.4151    2.1211    0.7154 C   0  0  0  0  0  0  0  0  0  0  0  0
    5.5149    2.9833    0.7117 C   0  0  0  0  0  0  0  0  0  0  0  0
    5.5904    4.0115   -0.2239 C   0  0  0  0  0  0  0  0  0  0  0  0
    4.5685    4.1768   -1.1558 C   0  0  0  0  0  0  0  0  0  0  0  0
    3.4673    3.3141   -1.1519 C   0  0  0  0  0  0  0  0  0  0  0  0
    2.2210    0.2531    0.5544 N   0  0  0  0  0  0  0  0  0  0  0  0
    1.0693   -0.4063    0.2413 N   0  0  0  0  0  0  0  0  0  0  0  0
    0.9942   -1.8093    0.4991 C   0  0  0  0  0  0  0  0  0  0  0  0
    0.1299   -2.6435   -0.2223 C   0  0  0  0  0  0  0  0  0  0  0  0
    0.1051   -4.0182    0.0315 C   0  0  0  0  0  0  0  0  0  0  0  0
    0.9497   -4.5700    0.9932 C   0  0  0  0  0  0  0  0  0  0  0  0
    1.8291   -3.7516    1.6985 C   0  0  0  0  0  0  0  0  0  0  0  0
    1.8586   -2.3778    1.4487 C   0  0  0  0  0  0  0  0  0  0  0  0
   -4.4087   -0.2674    0.8499 C   0  0  0  0  0  0  0  0  0  0  0  0
   -7.2213   -0.4327   -1.0713 H   0  0  0  0  0  0  0  0  0  0  0  0
   -5.5202   -0.5315   -2.8631 H   0  0  0  0  0  0  0  0  0  0  0  0
   -3.1198   -0.4818   -2.3098 H   0  0  0  0  0  0  0  0  0  0  0  0
   -1.5604    0.9350   -1.3828 H   0  0  0  0  0  0  0  0  0  0  0  0
    0.6722    2.3156   -1.5056 H   0  0  0  0  0  0  0  0  0  0  0  0
    4.3742    1.3234    1.4553 H   0  0  0  0  0  0  0  0  0  0  0  0
    6.3097    2.8478    1.4405 H   0  0  0  0  0  0  0  0  0  0  0  0
    6.4461    4.6817   -0.2274 H   0  0  0  0  0  0  0  0  0  0  0  0
    4.6287    4.9770   -1.8891 H   0  0  0  0  0  0  0  0  0  0  0  0
    2.6943    3.4672   -1.8991 H   0  0  0  0  0  0  0  0  0  0  0  0
   -0.5139   -2.2578   -1.0045 H   0  0  0  0  0  0  0  0  0  0  0  0
   -0.5710   -4.6606   -0.5265 H   0  0  0  0  0  0  0  0  0  0  0  0
    0.9267   -5.6386    1.1898 H   0  0  0  0  0  0  0  0  0  0  0  0
    2.4926   -4.1793    2.4453 H   0  0  0  0  0  0  0  0  0  0  0  0
    2.5514   -1.7564    2.0131 H   0  0  0  0  0  0  0  0  0  0  0  0
   -4.0935   -0.2072    1.8919 H   0  0  0  0  0  0  0  0  0  0  0  0
  1  2  3  0
  2  3  1  0
  3  4  2  0
  4  5  1  0
  5  6  2  0
  6  7  1  0
  7  8  1  0
  8  9  2  0
  8 10  1  0
 10 11  1  0
 11 12  2  0
 12 13  1  0
 13 14  1  0
 14 15  2  0
 15 16  1  0
 16 17  2  0
 17 18  1  0
 18 19  2  0
 13 20  2  0
 20 21  1  0
 21 22  1  0
 22 23  2  0
 23 24  1  0
 24 25  2  0
 25 26  1  0
 26 27  2  0
  7 28  2  0
 28  3  1  0
 21 11  1  0
 27 22  1  0
 19 14  1  0
  4 29  1  0
  5 30  1  0
  6 31  1  0
 10 32  1  0
 12 33  1  0
 15 34  1  0
 16 35  1  0
 17 36  1  0
 18 37  1  0
 19 38  1  0
 23 39  1  0
 24 40  1  0
 25 41  1  0
 26 42  1  0
 27 43  1  0
 28 44  1  0
M  END
$$$$
