


 28 29  0  0  0  0  0  0  0  0999 V2000
  -17.9561   19.3709  -14.1100 C   0  0  0  0  0  0  0  0  0  0  0  0
  -18.9319   18.8880  -14.6757 O   0  0  0  0  0  0  0  0  0  0  0  0
  -16.6594   19.1616  -14.5367 N   0  0  0  0  0  0  0  0  0  0  0  0
  -15.9477   19.8140  -14.1982 H   0  0  0  0  0  0  0  0  0  0  0  0
  -18.0540   20.3205  -12.9209 C   0  0  0  0  0  0  0  0  0  0  0  0
  -18.1785   21.7429  -13.4893 C   0  0  0  0  0  0  0  0  0  0  0  0
  -16.7578   22.7944  -13.0392 S   0  0  0  0  0  0  0  0  0  0  0  0
  -17.0638   25.2400  -11.8208 C   0  0  0  0  0  0  0  0  0  0  0  0
  -17.5366   23.8153  -11.8301 C   0  0  0  0  0  0  0  0  0  0  0  0
  -18.4327   23.3990  -11.1022 O   0  0  0  0  0  0  0  0  0  0  0  0
  -19.2531   19.9883  -12.0195 C   0  0  0  0  0  0  0  0  0  0  0  0
  -18.8290   19.6010  -10.6206 C   0  0  0  0  0  0  0  0  0  0  0  0
  -19.4529   18.5401   -9.9525 C   0  0  0  0  0  0  0  0  0  0  0  0
  -19.0427   18.1749   -8.6705 C   0  0  0  0  0  0  0  0  0  0  0  0
  -18.0032   18.8628   -8.0463 C   0  0  0  0  0  0  0  0  0  0  0  0
  -17.3724   19.9169   -8.7043 C   0  0  0  0  0  0  0  0  0  0  0  0
  -17.7816   20.2844   -9.9858 C   0  0  0  0  0  0  0  0  0  0  0  0
  -16.3787   18.4896  -15.7968 C   0  0  0  0  0  0  0  0  0  0  0  0
  -15.2532   17.4559  -15.7121 C   0  0  0  0  0  0  0  0  0  0  0  0
  -14.9904   16.6594  -16.6060 O   0  0  0  0  0  0  0  0  0  0  0  0
  -14.6226   17.4969  -14.5101 O   0  0  0  0  0  0  0  0  0  0  0  0
  -14.2579   16.2182  -13.9873 C   0  0  0  0  0  0  0  0  0  0  0  0
  -15.0292   16.0289  -12.7060 C   0  0  0  0  0  0  0  0  0  0  0  0
  -15.4132   14.7476  -12.2863 C   0  0  0  0  0  0  0  0  0  0  0  0
  -16.1545   14.5776  -11.1168 C   0  0  0  0  0  0  0  0  0  0  0  0
  -16.5323   15.6868  -10.3631 C   0  0  0  0  0  0  0  0  0  0  0  0
  -16.1684   16.9675  -10.7771 C   0  0  0  0  0  0  0  0  0  0  0  0
  -15.4212   17.1391  -11.9429 C   0  0  0  0  0  0  0  0  0  0  0  0
  8  9  1  0  0  0
  9 10  2  0  0  0
  9  7  1  0  0  0
  7  6  1  0  0  0
  6  5  1  0  0  0
  5 11  1  0  0  0
 11 12  1  0  0  0
 12 13  2  0  0  0
 13 14  1  0  0  0
 14 15  2  0  0  0
 15 16  1  0  0  0
 16 17  2  0  0  0
  5  1  1  0  0  0
  1  2  2  0  0  0
  1  3  1  0  0  0
  3 18  1  0  0  0
 18 19  1  0  0  0
 19 20  2  0  0  0
 19 21  1  0  0  0
 21 22  1  0  0  0
 22 23  1  0  0  0
 23 24  2  0  0  0
 24 25  1  0  0  0
 25 26  2  0  0  0
 26 27  1  0  0  0
 27 28  2  0  0  0
 17 12  1  0  0  0
 28 23  1  0  0  0
  3  4  1  0  0  0
M  END
> <minimizedAffinity>
-7.97198

$$$$



 28 29  0  0  0  0  0  0  0  0999 V2000
  -17.4542   19.8042  -13.1901 C   0  0  0  0  0  0  0  0  0  0  0  0
  -18.6169   19.4316  -13.3113 O   0  0  0  0  0  0  0  0  0  0  0  0
  -17.1013   21.1308  -13.0384 N   0  0  0  0  0  0  0  0  0  0  0  0
  -16.1694   21.3239  -12.6630 H   0  0  0  0  0  0  0  0  0  0  0  0
  -16.2661   18.8515  -13.1124 C   0  0  0  0  0  0  0  0  0  0  0  0
  -15.0228   19.6456  -13.5430 C   0  0  0  0  0  0  0  0  0  0  0  0
  -14.4778   19.2162  -15.2297 S   0  0  0  0  0  0  0  0  0  0  0  0
  -16.6526   19.1163  -16.9087 C   0  0  0  0  0  0  0  0  0  0  0  0
  -15.7404   20.0352  -16.1493 C   0  0  0  0  0  0  0  0  0  0  0  0
  -15.8882   21.2530  -16.1156 O   0  0  0  0  0  0  0  0  0  0  0  0
  -16.0826   18.2787  -11.6986 C   0  0  0  0  0  0  0  0  0  0  0  0
  -15.7310   16.8080  -11.7169 C   0  0  0  0  0  0  0  0  0  0  0  0
  -15.0178   16.2569  -12.7886 C   0  0  0  0  0  0  0  0  0  0  0  0
  -14.6786   14.9041  -12.7892 C   0  0  0  0  0  0  0  0  0  0  0  0
  -15.0448   14.0909  -11.7177 C   0  0  0  0  0  0  0  0  0  0  0  0
  -15.7504   14.6304  -10.6440 C   0  0  0  0  0  0  0  0  0  0  0  0
  -16.0914   15.9826  -10.6418 C   0  0  0  0  0  0  0  0  0  0  0  0
  -18.1092   22.1617  -12.8387 C   0  0  0  0  0  0  0  0  0  0  0  0
  -17.7887   23.1309  -11.6983 C   0  0  0  0  0  0  0  0  0  0  0  0
  -17.2985   24.2419  -11.8653 O   0  0  0  0  0  0  0  0  0  0  0  0
  -18.0641   22.5876  -10.4846 O   0  0  0  0  0  0  0  0  0  0  0  0
  -19.2026   21.7246  -10.4652 C   0  0  0  0  0  0  0  0  0  0  0  0
  -18.7733   20.4424   -9.7989 C   0  0  0  0  0  0  0  0  0  0  0  0
  -19.4787   19.2513  -10.0206 C   0  0  0  0  0  0  0  0  0  0  0  0
  -19.0989   18.0728   -9.3779 C   0  0  0  0  0  0  0  0  0  0  0  0
  -18.0203   18.0756   -8.4961 C   0  0  0  0  0  0  0  0  0  0  0  0
  -17.3191   19.2567   -8.2565 C   0  0  0  0  0  0  0  0  0  0  0  0
  -17.6931   20.4349   -8.9035 C   0  0  0  0  0  0  0  0  0  0  0  0
  8  9  1  0  0  0
  9 10  2  0  0  0
  9  7  1  0  0  0
  7  6  1  0  0  0
  6  5  1  0  0  0
  5 11  1  0  0  0
 11 12  1  0  0  0
 12 13  2  0  0  0
 13 14  1  0  0  0
 14 15  2  0  0  0
 15 16  1  0  0  0
 16 17  2  0  0  0
  5  1  1  0  0  0
  1  2  2  0  0  0
  1  3  1  0  0  0
  3 18  1  0  0  0
 18 19  1  0  0  0
 19 20  2  0  0  0
 19 21  1  0  0  0
 21 22  1  0  0  0
 22 23  1  0  0  0
 23 24  2  0  0  0
 24 25  1  0  0  0
 25 26  2  0  0  0
 26 27  1  0  0  0
 27 28  2  0  0  0
 17 12  1  0  0  0
 28 23  1  0  0  0
  3  4  1  0  0  0
M  END
> <minimizedAffinity>
-7.93871

$$$$



 28 29  0  0  0  0  0  0  0  0999 V2000
  -18.9921   20.6938  -10.3987 C   0  0  0  0  0  0  0  0  0  0  0  0
  -19.9842   19.9788  -10.4986 O   0  0  0  0  0  0  0  0  0  0  0  0
  -18.2886   20.8439   -9.2198 N   0  0  0  0  0  0  0  0  0  0  0  0
  -17.3370   21.2132   -9.2901 H   0  0  0  0  0  0  0  0  0  0  0  0
  -18.3673   21.4394  -11.5730 C   0  0  0  0  0  0  0  0  0  0  0  0
  -18.2268   22.9101  -11.1495 C   0  0  0  0  0  0  0  0  0  0  0  0
  -17.2813   23.8915  -12.3616 S   0  0  0  0  0  0  0  0  0  0  0  0
  -15.9044   25.5533  -10.6581 C   0  0  0  0  0  0  0  0  0  0  0  0
  -17.1619   25.4054  -11.4645 C   0  0  0  0  0  0  0  0  0  0  0  0
  -18.0150   26.2836  -11.5478 O   0  0  0  0  0  0  0  0  0  0  0  0
  -17.0017   20.8531  -11.9628 C   0  0  0  0  0  0  0  0  0  0  0  0
  -17.0419   20.1446  -13.2982 C   0  0  0  0  0  0  0  0  0  0  0  0
  -18.2637   19.7808  -13.8779 C   0  0  0  0  0  0  0  0  0  0  0  0
  -18.2943   19.1463  -15.1195 C   0  0  0  0  0  0  0  0  0  0  0  0
  -17.1058   18.8735  -15.7950 C   0  0  0  0  0  0  0  0  0  0  0  0
  -15.8848   19.2357  -15.2292 C   0  0  0  0  0  0  0  0  0  0  0  0
  -15.8519   19.8693  -13.9874 C   0  0  0  0  0  0  0  0  0  0  0  0
  -18.5824   20.0213   -8.0556 C   0  0  0  0  0  0  0  0  0  0  0  0
  -17.4633   19.0443   -7.6871 C   0  0  0  0  0  0  0  0  0  0  0  0
  -17.0371   18.8944   -6.5477 O   0  0  0  0  0  0  0  0  0  0  0  0
  -16.9700   18.4093   -8.7813 O   0  0  0  0  0  0  0  0  0  0  0  0
  -17.6909   17.2360   -9.1620 C   0  0  0  0  0  0  0  0  0  0  0  0
  -16.8753   16.5413  -10.2225 C   0  0  0  0  0  0  0  0  0  0  0  0
  -16.7404   15.1459  -10.2199 C   0  0  0  0  0  0  0  0  0  0  0  0
  -15.9590   14.5079  -11.1834 C   0  0  0  0  0  0  0  0  0  0  0  0
  -15.2927   15.2582  -12.1499 C   0  0  0  0  0  0  0  0  0  0  0  0
  -15.4077   16.6478  -12.1550 C   0  0  0  0  0  0  0  0  0  0  0  0
  -16.1942   17.2873  -11.1962 C   0  0  0  0  0  0  0  0  0  0  0  0
  8  9  1  0  0  0
  9 10  2  0  0  0
  9  7  1  0  0  0
  7  6  1  0  0  0
  6  5  1  0  0  0
  5 11  1  0  0  0
 11 12  1  0  0  0
 12 13  2  0  0  0
 13 14  1  0  0  0
 14 15  2  0  0  0
 15 16  1  0  0  0
 16 17  2  0  0  0
  5  1  1  0  0  0
  1  2  2  0  0  0
  1  3  1  0  0  0
  3 18  1  0  0  0
 18 19  1  0  0  0
 19 20  2  0  0  0
 19 21  1  0  0  0
 21 22  1  0  0  0
 22 23  1  0  0  0
 23 24  2  0  0  0
 24 25  1  0  0  0
 25 26  2  0  0  0
 26 27  1  0  0  0
 27 28  2  0  0  0
 17 12  1  0  0  0
 28 23  1  0  0  0
  3  4  1  0  0  0
M  END
> <minimizedAffinity>
-7.92426

$$$$



 28 29  0  0  0  0  0  0  0  0999 V2000
  -17.9407   19.2680  -14.2671 C   0  0  0  0  0  0  0  0  0  0  0  0
  -18.8962   18.9850  -14.9829 O   0  0  0  0  0  0  0  0  0  0  0  0
  -16.6489   18.8645  -14.5424 N   0  0  0  0  0  0  0  0  0  0  0  0
  -15.8938   19.3702  -14.0724 H   0  0  0  0  0  0  0  0  0  0  0  0
  -18.0441   20.1610  -13.0353 C   0  0  0  0  0  0  0  0  0  0  0  0
  -18.2035   21.6047  -13.5375 C   0  0  0  0  0  0  0  0  0  0  0  0
  -16.6585   22.5626  -13.3904 S   0  0  0  0  0  0  0  0  0  0  0  0
  -16.6064   22.9782  -16.1077 C   0  0  0  0  0  0  0  0  0  0  0  0
  -15.9671   22.2251  -14.9775 C   0  0  0  0  0  0  0  0  0  0  0  0
  -15.0036   21.4796  -15.1257 O   0  0  0  0  0  0  0  0  0  0  0  0
  -19.2260   19.7640  -12.1375 C   0  0  0  0  0  0  0  0  0  0  0  0
  -18.8015   19.5138  -10.7079 C   0  0  0  0  0  0  0  0  0  0  0  0
  -17.8269   20.3156  -10.1009 C   0  0  0  0  0  0  0  0  0  0  0  0
  -17.4551   20.0924   -8.7753 C   0  0  0  0  0  0  0  0  0  0  0  0
  -18.0562   19.0698   -8.0431 C   0  0  0  0  0  0  0  0  0  0  0  0
  -19.0305   18.2692   -8.6361 C   0  0  0  0  0  0  0  0  0  0  0  0
  -19.4031   18.4900   -9.9617 C   0  0  0  0  0  0  0  0  0  0  0  0
  -16.3126   18.2176  -15.8020 C   0  0  0  0  0  0  0  0  0  0  0  0
  -15.1252   17.2562  -15.7088 C   0  0  0  0  0  0  0  0  0  0  0  0
  -14.8141   16.4691  -16.5954 O   0  0  0  0  0  0  0  0  0  0  0  0
  -14.4978   17.3474  -14.5079 O   0  0  0  0  0  0  0  0  0  0  0  0
  -14.1896   16.0907  -13.9022 C   0  0  0  0  0  0  0  0  0  0  0  0
  -15.0423   15.9763  -12.6643 C   0  0  0  0  0  0  0  0  0  0  0  0
  -15.3734   17.1157  -11.9175 C   0  0  0  0  0  0  0  0  0  0  0  0
  -16.1357   17.0036  -10.7546 C   0  0  0  0  0  0  0  0  0  0  0  0
  -16.5622   15.7511  -10.3180 C   0  0  0  0  0  0  0  0  0  0  0  0
  -16.2278   14.6089  -11.0444 C   0  0  0  0  0  0  0  0  0  0  0  0
  -15.4711   14.7196  -12.2115 C   0  0  0  0  0  0  0  0  0  0  0  0
  8  9  1  0  0  0
  9 10  2  0  0  0
  9  7  1  0  0  0
  7  6  1  0  0  0
  6  5  1  0  0  0
  5 11  1  0  0  0
 11 12  1  0  0  0
 12 13  2  0  0  0
 13 14  1  0  0  0
 14 15  2  0  0  0
 15 16  1  0  0  0
 16 17  2  0  0  0
  5  1  1  0  0  0
  1  2  2  0  0  0
  1  3  1  0  0  0
  3 18  1  0  0  0
 18 19  1  0  0  0
 19 20  2  0  0  0
 19 21  1  0  0  0
 21 22  1  0  0  0
 22 23  1  0  0  0
 23 24  2  0  0  0
 24 25  1  0  0  0
 25 26  2  0  0  0
 26 27  1  0  0  0
 27 28  2  0  0  0
 17 12  1  0  0  0
 28 23  1  0  0  0
  3  4  1  0  0  0
M  END
> <minimizedAffinity>
-7.82852

$$$$



 28 29  0  0  0  0  0  0  0  0999 V2000
  -15.1932   19.5507  -14.8406 C   0  0  0  0  0  0  0  0  0  0  0  0
  -14.6972   20.1309  -15.8012 O   0  0  0  0  0  0  0  0  0  0  0  0
  -15.6784   20.2132  -13.7302 N   0  0  0  0  0  0  0  0  0  0  0  0
  -16.3193   19.6958  -13.1234 H   0  0  0  0  0  0  0  0  0  0  0  0
  -15.4081   18.0421  -14.7844 C   0  0  0  0  0  0  0  0  0  0  0  0
  -15.3649   17.5267  -16.2317 C   0  0  0  0  0  0  0  0  0  0  0  0
  -13.8765   16.5268  -16.5656 S   0  0  0  0  0  0  0  0  0  0  0  0
  -14.1007   18.3073  -18.6486 C   0  0  0  0  0  0  0  0  0  0  0  0
  -13.6447   16.9289  -18.2672 C   0  0  0  0  0  0  0  0  0  0  0  0
  -13.0994   16.1593  -19.0523 O   0  0  0  0  0  0  0  0  0  0  0  0
  -14.3423   17.3431  -13.9264 C   0  0  0  0  0  0  0  0  0  0  0  0
  -14.9505   16.5379  -12.8001 C   0  0  0  0  0  0  0  0  0  0  0  0
  -15.5945   17.1754  -11.7324 C   0  0  0  0  0  0  0  0  0  0  0  0
  -16.1714   16.4258  -10.7075 C   0  0  0  0  0  0  0  0  0  0  0  0
  -16.1143   15.0334  -10.7420 C   0  0  0  0  0  0  0  0  0  0  0  0
  -15.4801   14.3889  -11.8024 C   0  0  0  0  0  0  0  0  0  0  0  0
  -14.9017   15.1365  -12.8277 C   0  0  0  0  0  0  0  0  0  0  0  0
  -15.7886   21.6643  -13.7055 C   0  0  0  0  0  0  0  0  0  0  0  0
  -16.9765   22.1831  -12.8915 C   0  0  0  0  0  0  0  0  0  0  0  0
  -17.3000   23.3640  -12.8345 O   0  0  0  0  0  0  0  0  0  0  0  0
  -17.5886   21.1851  -12.2036 O   0  0  0  0  0  0  0  0  0  0  0  0
  -18.6874   21.6088  -11.3948 C   0  0  0  0  0  0  0  0  0  0  0  0
  -18.5649   20.8932  -10.0737 C   0  0  0  0  0  0  0  0  0  0  0  0
  -17.5896   19.9040   -9.8851 C   0  0  0  0  0  0  0  0  0  0  0  0
  -17.4988   19.2207   -8.6722 C   0  0  0  0  0  0  0  0  0  0  0  0
  -18.3907   19.5080   -7.6412 C   0  0  0  0  0  0  0  0  0  0  0  0
  -19.3741   20.4800   -7.8212 C   0  0  0  0  0  0  0  0  0  0  0  0
  -19.4622   21.1693   -9.0311 C   0  0  0  0  0  0  0  0  0  0  0  0
  8  9  1  0  0  0
  9 10  2  0  0  0
  9  7  1  0  0  0
  7  6  1  0  0  0
  6  5  1  0  0  0
  5 11  1  0  0  0
 11 12  1  0  0  0
 12 13  2  0  0  0
 13 14  1  0  0  0
 14 15  2  0  0  0
 15 16  1  0  0  0
 16 17  2  0  0  0
  5  1  1  0  0  0
  1  2  2  0  0  0
  1  3  1  0  0  0
  3 18  1  0  0  0
 18 19  1  0  0  0
 19 20  2  0  0  0
 19 21  1  0  0  0
 21 22  1  0  0  0
 22 23  1  0  0  0
 23 24  2  0  0  0
 24 25  1  0  0  0
 25 26  2  0  0  0
 26 27  1  0  0  0
 27 28  2  0  0  0
 17 12  1  0  0  0
 28 23  1  0  0  0
  3  4  1  0  0  0
M  END
> <minimizedAffinity>
-7.36161

$$$$



 28 29  0  0  0  0  0  0  0  0999 V2000
  -15.9891   20.1380  -13.8042 C   0  0  0  0  0  0  0  0  0  0  0  0
  -15.0069   20.4672  -13.1466 O   0  0  0  0  0  0  0  0  0  0  0  0
  -15.8995   19.4347  -14.9894 N   0  0  0  0  0  0  0  0  0  0  0  0
  -16.7463   18.9610  -15.3139 H   0  0  0  0  0  0  0  0  0  0  0  0
  -17.4257   20.3916  -13.3604 C   0  0  0  0  0  0  0  0  0  0  0  0
  -18.2363   20.7198  -14.6242 C   0  0  0  0  0  0  0  0  0  0  0  0
  -17.9859   22.4390  -15.1793 S   0  0  0  0  0  0  0  0  0  0  0  0
  -18.3449   22.2492  -17.8986 C   0  0  0  0  0  0  0  0  0  0  0  0
  -17.3407   22.1223  -16.7900 C   0  0  0  0  0  0  0  0  0  0  0  0
  -16.1535   21.8781  -16.9823 O   0  0  0  0  0  0  0  0  0  0  0  0
  -18.0229   19.1781  -12.6314 C   0  0  0  0  0  0  0  0  0  0  0  0
  -18.2770   19.4568  -11.1670 C   0  0  0  0  0  0  0  0  0  0  0  0
  -18.8784   18.4918  -10.3496 C   0  0  0  0  0  0  0  0  0  0  0  0
  -19.0909   18.7477   -8.9951 C   0  0  0  0  0  0  0  0  0  0  0  0
  -18.7007   19.9674   -8.4442 C   0  0  0  0  0  0  0  0  0  0  0  0
  -18.0970   20.9327   -9.2478 C   0  0  0  0  0  0  0  0  0  0  0  0
  -17.8846   20.6793  -10.6026 C   0  0  0  0  0  0  0  0  0  0  0  0
  -14.6315   18.8864  -15.4476 C   0  0  0  0  0  0  0  0  0  0  0  0
  -14.7496   17.5024  -16.0905 C   0  0  0  0  0  0  0  0  0  0  0  0
  -14.6261   17.2964  -17.2925 O   0  0  0  0  0  0  0  0  0  0  0  0
  -15.0589   16.5479  -15.1755 O   0  0  0  0  0  0  0  0  0  0  0  0
  -14.1069   16.4073  -14.1194 C   0  0  0  0  0  0  0  0  0  0  0  0
  -14.8776   16.0434  -12.8760 C   0  0  0  0  0  0  0  0  0  0  0  0
  -15.3835   14.7475  -12.7031 C   0  0  0  0  0  0  0  0  0  0  0  0
  -16.1238   14.4217  -11.5664 C   0  0  0  0  0  0  0  0  0  0  0  0
  -16.3786   15.3909  -10.5985 C   0  0  0  0  0  0  0  0  0  0  0  0
  -15.8926   16.6871  -10.7653 C   0  0  0  0  0  0  0  0  0  0  0  0
  -15.1463   17.0131  -11.8983 C   0  0  0  0  0  0  0  0  0  0  0  0
  8  9  1  0  0  0
  9 10  2  0  0  0
  9  7  1  0  0  0
  7  6  1  0  0  0
  6  5  1  0  0  0
  5 11  1  0  0  0
 11 12  1  0  0  0
 12 13  2  0  0  0
 13 14  1  0  0  0
 14 15  2  0  0  0
 15 16  1  0  0  0
 16 17  2  0  0  0
  5  1  1  0  0  0
  1  2  2  0  0  0
  1  3  1  0  0  0
  3 18  1  0  0  0
 18 19  1  0  0  0
 19 20  2  0  0  0
 19 21  1  0  0  0
 21 22  1  0  0  0
 22 23  1  0  0  0
 23 24  2  0  0  0
 24 25  1  0  0  0
 25 26  2  0  0  0
 26 27  1  0  0  0
 27 28  2  0  0  0
 17 12  1  0  0  0
 28 23  1  0  0  0
  3  4  1  0  0  0
M  END
> <minimizedAffinity>
-7.25559

$$$$



 28 29  0  0  0  0  0  0  0  0999 V2000
  -17.9957   21.3334  -11.5857 C   0  0  0  0  0  0  0  0  0  0  0  0
  -18.8731   22.1455  -11.3101 O   0  0  0  0  0  0  0  0  0  0  0  0
  -17.4660   20.4551  -10.6607 N   0  0  0  0  0  0  0  0  0  0  0  0
  -16.9655   19.6411  -11.0262 H   0  0  0  0  0  0  0  0  0  0  0  0
  -17.4386   21.1370  -12.9916 C   0  0  0  0  0  0  0  0  0  0  0  0
  -17.2663   22.5346  -13.6072 C   0  0  0  0  0  0  0  0  0  0  0  0
  -18.0647   22.6737  -15.2411 S   0  0  0  0  0  0  0  0  0  0  0  0
  -16.9689   21.7212  -17.5759 C   0  0  0  0  0  0  0  0  0  0  0  0
  -16.6585   22.3849  -16.2658 C   0  0  0  0  0  0  0  0  0  0  0  0
  -15.5319   22.7546  -15.9491 O   0  0  0  0  0  0  0  0  0  0  0  0
  -16.1014   20.3805  -12.9775 C   0  0  0  0  0  0  0  0  0  0  0  0
  -15.8748   19.5926  -14.2482 C   0  0  0  0  0  0  0  0  0  0  0  0
  -16.9488   18.9963  -14.9205 C   0  0  0  0  0  0  0  0  0  0  0  0
  -16.7355   18.2885  -16.1032 C   0  0  0  0  0  0  0  0  0  0  0  0
  -15.4487   18.1738  -16.6271 C   0  0  0  0  0  0  0  0  0  0  0  0
  -14.3737   18.7675  -15.9685 C   0  0  0  0  0  0  0  0  0  0  0  0
  -14.5847   19.4748  -14.7853 C   0  0  0  0  0  0  0  0  0  0  0  0
  -18.0428   20.3209   -9.3312 C   0  0  0  0  0  0  0  0  0  0  0  0
  -18.1032   18.8783   -8.8233 C   0  0  0  0  0  0  0  0  0  0  0  0
  -18.2145   18.5761   -7.6406 O   0  0  0  0  0  0  0  0  0  0  0  0
  -17.9651   17.9831   -9.8350 O   0  0  0  0  0  0  0  0  0  0  0  0
  -17.5201   16.6886   -9.4255 C   0  0  0  0  0  0  0  0  0  0  0  0
  -16.6084   16.1720  -10.5092 C   0  0  0  0  0  0  0  0  0  0  0  0
  -16.0383   17.0501  -11.4416 C   0  0  0  0  0  0  0  0  0  0  0  0
  -15.2205   16.5659  -12.4628 C   0  0  0  0  0  0  0  0  0  0  0  0
  -14.9761   15.1986  -12.5717 C   0  0  0  0  0  0  0  0  0  0  0  0
  -15.5483   14.3135  -11.6589 C   0  0  0  0  0  0  0  0  0  0  0  0
  -16.3611   14.7965  -10.6327 C   0  0  0  0  0  0  0  0  0  0  0  0
  8  9  1  0  0  0
  9 10  2  0  0  0
  9  7  1  0  0  0
  7  6  1  0  0  0
  6  5  1  0  0  0
  5 11  1  0  0  0
 11 12  1  0  0  0
 12 13  2  0  0  0
 13 14  1  0  0  0
 14 15  2  0  0  0
 15 16  1  0  0  0
 16 17  2  0  0  0
  5  1  1  0  0  0
  1  2  2  0  0  0
  1  3  1  0  0  0
  3 18  1  0  0  0
 18 19  1  0  0  0
 19 20  2  0  0  0
 19 21  1  0  0  0
 21 22  1  0  0  0
 22 23  1  0  0  0
 23 24  2  0  0  0
 24 25  1  0  0  0
 25 26  2  0  0  0
 26 27  1  0  0  0
 27 28  2  0  0  0
 17 12  1  0  0  0
 28 23  1  0  0  0
  3  4  1  0  0  0
M  END
> <minimizedAffinity>
-7.22662

$$$$



 28 29  0  0  0  0  0  0  0  0999 V2000
  -17.1350   20.6114  -14.9189 C   0  0  0  0  0  0  0  0  0  0  0  0
  -18.0517   21.0501  -15.6064 O   0  0  0  0  0  0  0  0  0  0  0  0
  -16.3866   21.4026  -14.0695 N   0  0  0  0  0  0  0  0  0  0  0  0
  -15.8530   20.9248  -13.3389 H   0  0  0  0  0  0  0  0  0  0  0  0
  -16.7598   19.1348  -14.8548 C   0  0  0  0  0  0  0  0  0  0  0  0
  -16.6197   18.6423  -16.3039 C   0  0  0  0  0  0  0  0  0  0  0  0
  -14.8801   18.5814  -16.8485 S   0  0  0  0  0  0  0  0  0  0  0  0
  -16.2330   19.9120  -18.8381 C   0  0  0  0  0  0  0  0  0  0  0  0
  -15.1076   18.9594  -18.5561 C   0  0  0  0  0  0  0  0  0  0  0  0
  -14.3631   18.5208  -19.4276 O   0  0  0  0  0  0  0  0  0  0  0  0
  -15.4553   18.9085  -14.0752 C   0  0  0  0  0  0  0  0  0  0  0  0
  -15.5731   17.7798  -13.0756 C   0  0  0  0  0  0  0  0  0  0  0  0
  -15.1067   16.4969  -13.3880 C   0  0  0  0  0  0  0  0  0  0  0  0
  -15.1995   15.4656  -12.4537 C   0  0  0  0  0  0  0  0  0  0  0  0
  -15.7548   15.7073  -11.1980 C   0  0  0  0  0  0  0  0  0  0  0  0
  -16.2176   16.9816  -10.8754 C   0  0  0  0  0  0  0  0  0  0  0  0
  -16.1266   18.0140  -11.8084 C   0  0  0  0  0  0  0  0  0  0  0  0
  -16.7546   22.7860  -13.8068 C   0  0  0  0  0  0  0  0  0  0  0  0
  -17.4024   23.0070  -12.4378 C   0  0  0  0  0  0  0  0  0  0  0  0
  -17.6854   24.1115  -11.9878 O   0  0  0  0  0  0  0  0  0  0  0  0
  -17.5732   21.8381  -11.7681 O   0  0  0  0  0  0  0  0  0  0  0  0
  -18.7000   21.8163  -10.8899 C   0  0  0  0  0  0  0  0  0  0  0  0
  -18.5759   20.5752  -10.0433 C   0  0  0  0  0  0  0  0  0  0  0  0
  -19.4652   19.5045  -10.2110 C   0  0  0  0  0  0  0  0  0  0  0  0
  -19.3684   18.3702   -9.4047 C   0  0  0  0  0  0  0  0  0  0  0  0
  -18.3922   18.3004   -8.4131 C   0  0  0  0  0  0  0  0  0  0  0  0
  -17.5105   19.3645   -8.2271 C   0  0  0  0  0  0  0  0  0  0  0  0
  -17.6014   20.4970   -9.0370 C   0  0  0  0  0  0  0  0  0  0  0  0
  8  9  1  0  0  0
  9 10  2  0  0  0
  9  7  1  0  0  0
  7  6  1  0  0  0
  6  5  1  0  0  0
  5 11  1  0  0  0
 11 12  1  0  0  0
 12 13  2  0  0  0
 13 14  1  0  0  0
 14 15  2  0  0  0
 15 16  1  0  0  0
 16 17  2  0  0  0
  5  1  1  0  0  0
  1  2  2  0  0  0
  1  3  1  0  0  0
  3 18  1  0  0  0
 18 19  1  0  0  0
 19 20  2  0  0  0
 19 21  1  0  0  0
 21 22  1  0  0  0
 22 23  1  0  0  0
 23 24  2  0  0  0
 24 25  1  0  0  0
 25 26  2  0  0  0
 26 27  1  0  0  0
 27 28  2  0  0  0
 17 12  1  0  0  0
 28 23  1  0  0  0
  3  4  1  0  0  0
M  END
> <minimizedAffinity>
-7.11876

$$$$



 28 29  0  0  0  0  0  0  0  0999 V2000
  -16.1832   18.4049  -15.6481 C   0  0  0  0  0  0  0  0  0  0  0  0
  -16.2846   18.7390  -16.8243 O   0  0  0  0  0  0  0  0  0  0  0  0
  -17.0554   18.8329  -14.6666 N   0  0  0  0  0  0  0  0  0  0  0  0
  -17.0763   18.2951  -13.7965 H   0  0  0  0  0  0  0  0  0  0  0  0
  -15.1376   17.4192  -15.1377 C   0  0  0  0  0  0  0  0  0  0  0  0
  -13.9553   17.4686  -16.1182 C   0  0  0  0  0  0  0  0  0  0  0  0
  -13.4865   15.8121  -16.7203 S   0  0  0  0  0  0  0  0  0  0  0  0
  -11.9683   15.4661  -18.9863 C   0  0  0  0  0  0  0  0  0  0  0  0
  -13.1297   16.2150  -18.4000 C   0  0  0  0  0  0  0  0  0  0  0  0
  -13.8183   17.0002  -19.0444 O   0  0  0  0  0  0  0  0  0  0  0  0
  -14.6765   17.7602  -13.7123 C   0  0  0  0  0  0  0  0  0  0  0  0
  -15.0936   16.7095  -12.7079 C   0  0  0  0  0  0  0  0  0  0  0  0
  -14.7388   15.3669  -12.8889 C   0  0  0  0  0  0  0  0  0  0  0  0
  -15.1089   14.4063  -11.9479 C   0  0  0  0  0  0  0  0  0  0  0  0
  -15.8326   14.7785  -10.8160 C   0  0  0  0  0  0  0  0  0  0  0  0
  -16.1866   16.1126  -10.6239 C   0  0  0  0  0  0  0  0  0  0  0  0
  -15.8183   17.0746  -11.5640 C   0  0  0  0  0  0  0  0  0  0  0  0
  -18.2613   19.5763  -15.0006 C   0  0  0  0  0  0  0  0  0  0  0  0
  -19.1324   19.9227  -13.7907 C   0  0  0  0  0  0  0  0  0  0  0  0
  -20.3551   19.8349  -13.7834 O   0  0  0  0  0  0  0  0  0  0  0  0
  -18.3896   20.3865  -12.7529 O   0  0  0  0  0  0  0  0  0  0  0  0
  -19.1528   20.8687  -11.6455 C   0  0  0  0  0  0  0  0  0  0  0  0
  -18.7484   20.0546  -10.4428 C   0  0  0  0  0  0  0  0  0  0  0  0
  -17.7844   20.5359   -9.5460 C   0  0  0  0  0  0  0  0  0  0  0  0
  -17.3885   19.7670   -8.4514 C   0  0  0  0  0  0  0  0  0  0  0  0
  -17.9406   18.5037   -8.2502 C   0  0  0  0  0  0  0  0  0  0  0  0
  -18.8902   18.0079   -9.1427 C   0  0  0  0  0  0  0  0  0  0  0  0
  -19.2924   18.7782  -10.2343 C   0  0  0  0  0  0  0  0  0  0  0  0
  8  9  1  0  0  0
  9 10  2  0  0  0
  9  7  1  0  0  0
  7  6  1  0  0  0
  6  5  1  0  0  0
  5 11  1  0  0  0
 11 12  1  0  0  0
 12 13  2  0  0  0
 13 14  1  0  0  0
 14 15  2  0  0  0
 15 16  1  0  0  0
 16 17  2  0  0  0
  5  1  1  0  0  0
  1  2  2  0  0  0
  1  3  1  0  0  0
  3 18  1  0  0  0
 18 19  1  0  0  0
 19 20  2  0  0  0
 19 21  1  0  0  0
 21 22  1  0  0  0
 22 23  1  0  0  0
 23 24  2  0  0  0
 24 25  1  0  0  0
 25 26  2  0  0  0
 26 27  1  0  0  0
 27 28  2  0  0  0
 17 12  1  0  0  0
 28 23  1  0  0  0
  3  4  1  0  0  0
M  END
> <minimizedAffinity>
-7.06594

$$$$
