


 29 32  0  0  0  0  0  0  0  0999 V2000
  -16.6337   19.0567  -12.4490 C   0  0  0  0  0  0  0  0  0  0  0  0
  -16.9826   19.9032  -11.4187 C   0  0  0  0  0  0  0  0  0  0  0  0
  -17.2981   19.0707  -10.3158 C   0  0  0  0  0  0  0  0  0  0  0  0
  -17.0989   17.7845  -10.6331 N   0  0  0  0  0  0  0  0  0  0  0  0
  -16.5161   17.7917  -11.8658 N   0  0  0  0  0  0  0  0  0  0  0  0
  -17.8104   19.4640   -8.9965 C   0  0  0  0  0  0  0  0  0  0  0  0
  -18.9911   20.2162   -8.8886 C   0  0  0  0  0  0  0  0  0  0  0  0
  -19.4884   20.5986   -7.6398 C   0  0  0  0  0  0  0  0  0  0  0  0
  -18.8123   20.2322   -6.4792 C   0  0  0  0  0  0  0  0  0  0  0  0
  -17.6413   19.4830   -6.5666 C   0  0  0  0  0  0  0  0  0  0  0  0
  -17.1432   19.1006   -7.8166 C   0  0  0  0  0  0  0  0  0  0  0  0
  -15.7624   16.6480  -12.2712 C   0  0  0  0  0  0  0  0  0  0  0  0
  -14.9027   16.6891  -13.3769 C   0  0  0  0  0  0  0  0  0  0  0  0
  -14.1533   15.5618  -13.7271 C   0  0  0  0  0  0  0  0  0  0  0  0
  -14.2454   14.3947  -12.9707 C   0  0  0  0  0  0  0  0  0  0  0  0
  -15.0796   14.3525  -11.8558 C   0  0  0  0  0  0  0  0  0  0  0  0
  -15.8300   15.4757  -11.5010 C   0  0  0  0  0  0  0  0  0  0  0  0
  -17.5066   19.4453  -14.6729 C   0  0  0  0  0  0  0  0  0  0  0  0
  -18.6685   19.1557  -14.4166 O   0  0  0  0  0  0  0  0  0  0  0  0
  -16.4477   19.4284  -13.7768 N   0  0  0  0  0  0  0  0  0  0  0  0
  -15.6906   20.0764  -13.9600 H   0  0  0  0  0  0  0  0  0  0  0  0
  -15.8429   19.6860  -18.0556 C   0  0  0  0  0  0  0  0  0  0  0  0
  -16.4775   20.8049  -18.6070 C   0  0  0  0  0  0  0  0  0  0  0  0
  -17.4473   21.4942  -17.8767 C   0  0  0  0  0  0  0  0  0  0  0  0
  -17.7941   21.0640  -16.5943 C   0  0  0  0  0  0  0  0  0  0  0  0
  -17.1746   19.9342  -16.0418 C   0  0  0  0  0  0  0  0  0  0  0  0
  -16.1893   19.2542  -16.7717 C   0  0  0  0  0  0  0  0  0  0  0  0
  -14.0361   18.4078  -19.4090 N   0  0  0  0  0  0  0  0  0  0  0  0
  -14.8416   18.9868  -18.8069 C   0  0  0  0  0  0  0  0  0  0  0  0
 28 29  3  0  0  0
 29 22  1  0  0  0
 22 23  2  0  0  0
 23 24  1  0  0  0
 24 25  2  0  0  0
 25 26  1  0  0  0
 26 18  1  0  0  0
 18 19  2  0  0  0
 18 20  1  0  0  0
 20  1  1  0  0  0
  1  2  2  0  0  0
  2  3  1  0  0  0
  3  6  1  0  0  0
  6  7  2  0  0  0
  7  8  1  0  0  0
  8  9  2  0  0  0
  9 10  1  0  0  0
 10 11  2  0  0  0
  3  4  2  0  0  0
  4  5  1  0  0  0
  5 12  1  0  0  0
 12 13  2  0  0  0
 13 14  1  0  0  0
 14 15  2  0  0  0
 15 16  1  0  0  0
 16 17  2  0  0  0
 26 27  2  0  0  0
 27 22  1  0  0  0
  5  1  1  0  0  0
 17 12  1  0  0  0
 11  6  1  0  0  0
 20 21  1  0  0  0
M  END
> <minimizedAffinity>
-9.63377

$$$$



 29 32  0  0  0  0  0  0  0  0999 V2000
  -16.6596   19.0019  -12.4323 C   0  0  0  0  0  0  0  0  0  0  0  0
  -17.0054   19.8547  -11.4062 C   0  0  0  0  0  0  0  0  0  0  0  0
  -17.2998   19.0298  -10.2919 C   0  0  0  0  0  0  0  0  0  0  0  0
  -17.0910   17.7427  -10.5991 N   0  0  0  0  0  0  0  0  0  0  0  0
  -16.5224   17.7438  -11.8384 N   0  0  0  0  0  0  0  0  0  0  0  0
  -17.8010   19.4306   -8.9706 C   0  0  0  0  0  0  0  0  0  0  0  0
  -17.1084   19.0612   -7.8064 C   0  0  0  0  0  0  0  0  0  0  0  0
  -17.5753   19.4342   -6.5431 C   0  0  0  0  0  0  0  0  0  0  0  0
  -18.7420   20.1847   -6.4257 C   0  0  0  0  0  0  0  0  0  0  0  0
  -19.4404   20.5634   -7.5697 C   0  0  0  0  0  0  0  0  0  0  0  0
  -18.9734   20.1897   -8.8343 C   0  0  0  0  0  0  0  0  0  0  0  0
  -15.7617   16.6040  -12.2416 C   0  0  0  0  0  0  0  0  0  0  0  0
  -14.8964   16.6503  -13.3427 C   0  0  0  0  0  0  0  0  0  0  0  0
  -14.1404   15.5268  -13.6906 C   0  0  0  0  0  0  0  0  0  0  0  0
  -14.2315   14.3582  -12.9364 C   0  0  0  0  0  0  0  0  0  0  0  0
  -15.0713   14.3108  -11.8260 C   0  0  0  0  0  0  0  0  0  0  0  0
  -15.8284   15.4302  -11.4735 C   0  0  0  0  0  0  0  0  0  0  0  0
  -17.5647   19.3751  -14.6460 C   0  0  0  0  0  0  0  0  0  0  0  0
  -18.7234   19.0904  -14.3700 O   0  0  0  0  0  0  0  0  0  0  0  0
  -16.4926   19.3627  -13.7657 N   0  0  0  0  0  0  0  0  0  0  0  0
  -15.7368   20.0073  -13.9653 H   0  0  0  0  0  0  0  0  0  0  0  0
  -17.6083   21.5032  -17.7666 C   0  0  0  0  0  0  0  0  0  0  0  0
  -16.7363   20.7991  -18.6046 C   0  0  0  0  0  0  0  0  0  0  0  0
  -16.1335   19.6205  -18.1612 C   0  0  0  0  0  0  0  0  0  0  0  0
  -16.3925   19.1436  -16.8746 C   0  0  0  0  0  0  0  0  0  0  0  0
  -17.2520   19.8523  -16.0235 C   0  0  0  0  0  0  0  0  0  0  0  0
  -17.8685   21.0268  -16.4781 C   0  0  0  0  0  0  0  0  0  0  0  0
  -18.7483   23.6800  -18.5983 N   0  0  0  0  0  0  0  0  0  0  0  0
  -18.2313   22.7086  -18.2301 C   0  0  0  0  0  0  0  0  0  0  0  0
 28 29  3  0  0  0
 29 22  1  0  0  0
 22 23  2  0  0  0
 23 24  1  0  0  0
 24 25  2  0  0  0
 25 26  1  0  0  0
 26 18  1  0  0  0
 18 19  2  0  0  0
 18 20  1  0  0  0
 20  1  1  0  0  0
  1  2  2  0  0  0
  2  3  1  0  0  0
  3  6  1  0  0  0
  6  7  2  0  0  0
  7  8  1  0  0  0
  8  9  2  0  0  0
  9 10  1  0  0  0
 10 11  2  0  0  0
  3  4  2  0  0  0
  4  5  1  0  0  0
  5 12  1  0  0  0
 12 13  2  0  0  0
 13 14  1  0  0  0
 14 15  2  0  0  0
 15 16  1  0  0  0
 16 17  2  0  0  0
 26 27  2  0  0  0
 27 22  1  0  0  0
  5  1  1  0  0  0
 17 12  1  0  0  0
 11  6  1  0  0  0
 20 21  1  0  0  0
M  END
> <minimizedAffinity>
-9.58712

$$$$



 29 32  0  0  0  0  0  0  0  0999 V2000
  -16.5050   18.5950  -13.9230 C   0  0  0  0  0  0  0  0  0  0  0  0
  -16.8069   19.1678  -15.1397 C   0  0  0  0  0  0  0  0  0  0  0  0
  -15.8184   18.7092  -16.0460 C   0  0  0  0  0  0  0  0  0  0  0  0
  -14.9872   17.8556  -15.4335 N   0  0  0  0  0  0  0  0  0  0  0  0
  -15.5186   17.6428  -14.1960 N   0  0  0  0  0  0  0  0  0  0  0  0
  -15.6292   19.0863  -17.4531 C   0  0  0  0  0  0  0  0  0  0  0  0
  -14.4700   18.6968  -18.1429 C   0  0  0  0  0  0  0  0  0  0  0  0
  -14.2765   19.0504  -19.4810 C   0  0  0  0  0  0  0  0  0  0  0  0
  -15.2418   19.7979  -20.1502 C   0  0  0  0  0  0  0  0  0  0  0  0
  -16.3999   20.1902  -19.4830 C   0  0  0  0  0  0  0  0  0  0  0  0
  -16.5934   19.8367  -18.1435 C   0  0  0  0  0  0  0  0  0  0  0  0
  -15.1521   16.4561  -13.4904 C   0  0  0  0  0  0  0  0  0  0  0  0
  -15.7301   16.1265  -12.2573 C   0  0  0  0  0  0  0  0  0  0  0  0
  -15.3742   14.9402  -11.6086 C   0  0  0  0  0  0  0  0  0  0  0  0
  -14.4532   14.0708  -12.1906 C   0  0  0  0  0  0  0  0  0  0  0  0
  -13.8914   14.3789  -13.4276 C   0  0  0  0  0  0  0  0  0  0  0  0
  -14.2437   15.5622  -14.0803 C   0  0  0  0  0  0  0  0  0  0  0  0
  -17.1135   20.2391  -12.2539 C   0  0  0  0  0  0  0  0  0  0  0  0
  -16.6578   21.2098  -12.8452 O   0  0  0  0  0  0  0  0  0  0  0  0
  -17.0868   18.9269  -12.7034 N   0  0  0  0  0  0  0  0  0  0  0  0
  -17.8374   18.3251  -12.3853 H   0  0  0  0  0  0  0  0  0  0  0  0
  -17.9728   20.0270   -8.5816 C   0  0  0  0  0  0  0  0  0  0  0  0
  -19.1400   20.7963   -8.5166 C   0  0  0  0  0  0  0  0  0  0  0  0
  -19.6603   21.3836   -9.6713 C   0  0  0  0  0  0  0  0  0  0  0  0
  -19.0120   21.2121  -10.8962 C   0  0  0  0  0  0  0  0  0  0  0  0
  -17.8332   20.4565  -10.9663 C   0  0  0  0  0  0  0  0  0  0  0  0
  -17.3227   19.8545   -9.8074 C   0  0  0  0  0  0  0  0  0  0  0  0
  -17.0365   18.9243   -6.4282 N   0  0  0  0  0  0  0  0  0  0  0  0
  -17.4475   19.4191   -7.3940 C   0  0  0  0  0  0  0  0  0  0  0  0
 28 29  3  0  0  0
 29 22  1  0  0  0
 22 23  2  0  0  0
 23 24  1  0  0  0
 24 25  2  0  0  0
 25 26  1  0  0  0
 26 18  1  0  0  0
 18 19  2  0  0  0
 18 20  1  0  0  0
 20  1  1  0  0  0
  1  2  2  0  0  0
  2  3  1  0  0  0
  3  6  1  0  0  0
  6  7  2  0  0  0
  7  8  1  0  0  0
  8  9  2  0  0  0
  9 10  1  0  0  0
 10 11  2  0  0  0
  3  4  2  0  0  0
  4  5  1  0  0  0
  5 12  1  0  0  0
 12 13  2  0  0  0
 13 14  1  0  0  0
 14 15  2  0  0  0
 15 16  1  0  0  0
 16 17  2  0  0  0
 26 27  2  0  0  0
 27 22  1  0  0  0
  5  1  1  0  0  0
 17 12  1  0  0  0
 11  6  1  0  0  0
 20 21  1  0  0  0
M  END
> <minimizedAffinity>
-9.26769

$$$$



 29 32  0  0  0  0  0  0  0  0999 V2000
  -17.1151   19.9490  -12.2520 C   0  0  0  0  0  0  0  0  0  0  0  0
  -16.6585   18.9081  -13.0315 C   0  0  0  0  0  0  0  0  0  0  0  0
  -16.1894   17.9191  -12.1311 C   0  0  0  0  0  0  0  0  0  0  0  0
  -16.3988   18.3064  -10.8659 N   0  0  0  0  0  0  0  0  0  0  0  0
  -17.1314   19.4538  -10.9448 N   0  0  0  0  0  0  0  0  0  0  0  0
  -15.5247   16.6468  -12.4428 C   0  0  0  0  0  0  0  0  0  0  0  0
  -15.7100   15.5275  -11.6157 C   0  0  0  0  0  0  0  0  0  0  0  0
  -15.0820   14.3118  -11.8997 C   0  0  0  0  0  0  0  0  0  0  0  0
  -14.2601   14.1971  -13.0175 C   0  0  0  0  0  0  0  0  0  0  0  0
  -14.0674   15.2959  -13.8515 C   0  0  0  0  0  0  0  0  0  0  0  0
  -14.6955   16.5130  -13.5671 C   0  0  0  0  0  0  0  0  0  0  0  0
  -17.9049   19.8493   -9.8109 C   0  0  0  0  0  0  0  0  0  0  0  0
  -18.9579   20.7668   -9.9238 C   0  0  0  0  0  0  0  0  0  0  0  0
  -19.7174   21.1071   -8.8004 C   0  0  0  0  0  0  0  0  0  0  0  0
  -19.4417   20.5256   -7.5640 C   0  0  0  0  0  0  0  0  0  0  0  0
  -18.4121   19.5946   -7.4474 C   0  0  0  0  0  0  0  0  0  0  0  0
  -17.6505   19.2504   -8.5664 C   0  0  0  0  0  0  0  0  0  0  0  0
  -16.5245   22.0880  -13.2187 C   0  0  0  0  0  0  0  0  0  0  0  0
  -15.3242   21.8668  -13.3178 O   0  0  0  0  0  0  0  0  0  0  0  0
  -17.4739   21.2116  -12.7136 N   0  0  0  0  0  0  0  0  0  0  0  0
  -18.4148   21.3062  -13.0774 H   0  0  0  0  0  0  0  0  0  0  0  0
  -17.9080   24.6414  -15.6343 C   0  0  0  0  0  0  0  0  0  0  0  0
  -18.0546   25.7634  -14.8109 C   0  0  0  0  0  0  0  0  0  0  0  0
  -17.6958   25.6983  -13.4632 C   0  0  0  0  0  0  0  0  0  0  0  0
  -17.1964   24.5086  -12.9292 C   0  0  0  0  0  0  0  0  0  0  0  0
  -17.0623   23.3757  -13.7440 C   0  0  0  0  0  0  0  0  0  0  0  0
  -17.4081   23.4496  -15.1008 C   0  0  0  0  0  0  0  0  0  0  0  0
  -18.5566   24.7907  -18.1416 N   0  0  0  0  0  0  0  0  0  0  0  0
  -18.2701   24.7164  -17.0196 C   0  0  0  0  0  0  0  0  0  0  0  0
 28 29  3  0  0  0
 29 22  1  0  0  0
 22 23  2  0  0  0
 23 24  1  0  0  0
 24 25  2  0  0  0
 25 26  1  0  0  0
 26 18  1  0  0  0
 18 19  2  0  0  0
 18 20  1  0  0  0
 20  1  1  0  0  0
  1  2  2  0  0  0
  2  3  1  0  0  0
  3  6  1  0  0  0
  6  7  2  0  0  0
  7  8  1  0  0  0
  8  9  2  0  0  0
  9 10  1  0  0  0
 10 11  2  0  0  0
  3  4  2  0  0  0
  4  5  1  0  0  0
  5 12  1  0  0  0
 12 13  2  0  0  0
 13 14  1  0  0  0
 14 15  2  0  0  0
 15 16  1  0  0  0
 16 17  2  0  0  0
 26 27  2  0  0  0
 27 22  1  0  0  0
  5  1  1  0  0  0
 17 12  1  0  0  0
 11  6  1  0  0  0
 20 21  1  0  0  0
M  END
> <minimizedAffinity>
-9.21442

$$$$



 29 32  0  0  0  0  0  0  0  0999 V2000
  -16.6571   19.5538  -13.0477 C   0  0  0  0  0  0  0  0  0  0  0  0
  -17.1025   20.3191  -11.9915 C   0  0  0  0  0  0  0  0  0  0  0  0
  -17.3512   19.4151  -10.9286 C   0  0  0  0  0  0  0  0  0  0  0  0
  -17.0222   18.1686  -11.2928 N   0  0  0  0  0  0  0  0  0  0  0  0
  -16.4247   18.2833  -12.5130 N   0  0  0  0  0  0  0  0  0  0  0  0
  -17.9191   19.7018   -9.6046 C   0  0  0  0  0  0  0  0  0  0  0  0
  -17.3643   19.1209   -8.4530 C   0  0  0  0  0  0  0  0  0  0  0  0
  -17.8960   19.3837   -7.1876 C   0  0  0  0  0  0  0  0  0  0  0  0
  -18.9904   20.2339   -7.0551 C   0  0  0  0  0  0  0  0  0  0  0  0
  -19.5519   20.8221   -8.1860 C   0  0  0  0  0  0  0  0  0  0  0  0
  -19.0200   20.5588   -9.4527 C   0  0  0  0  0  0  0  0  0  0  0  0
  -15.5566   17.2361  -12.9493 C   0  0  0  0  0  0  0  0  0  0  0  0
  -15.5910   15.9626  -12.3660 C   0  0  0  0  0  0  0  0  0  0  0  0
  -14.7514   14.9497  -12.8392 C   0  0  0  0  0  0  0  0  0  0  0  0
  -13.8851   15.1955  -13.9030 C   0  0  0  0  0  0  0  0  0  0  0  0
  -13.8611   16.4519  -14.5044 C   0  0  0  0  0  0  0  0  0  0  0  0
  -14.6981   17.4672  -14.0363 C   0  0  0  0  0  0  0  0  0  0  0  0
  -17.4596   19.7706  -15.3210 C   0  0  0  0  0  0  0  0  0  0  0  0
  -18.5241   19.1910  -15.1464 O   0  0  0  0  0  0  0  0  0  0  0  0
  -16.4888   19.9964  -14.3561 N   0  0  0  0  0  0  0  0  0  0  0  0
  -15.9103   20.8188  -14.4811 H   0  0  0  0  0  0  0  0  0  0  0  0
  -15.9051   20.2876  -18.7248 C   0  0  0  0  0  0  0  0  0  0  0  0
  -16.5729   21.4330  -19.1727 C   0  0  0  0  0  0  0  0  0  0  0  0
  -17.5297   22.0502  -18.3648 C   0  0  0  0  0  0  0  0  0  0  0  0
  -17.8303   21.5210  -17.1080 C   0  0  0  0  0  0  0  0  0  0  0  0
  -17.1773   20.3644  -16.6593 C   0  0  0  0  0  0  0  0  0  0  0  0
  -16.2052   19.7568  -17.4666 C   0  0  0  0  0  0  0  0  0  0  0  0
  -14.1198   19.1439  -20.2196 N   0  0  0  0  0  0  0  0  0  0  0  0
  -14.9173   19.6626  -19.5552 C   0  0  0  0  0  0  0  0  0  0  0  0
 28 29  3  0  0  0
 29 22  1  0  0  0
 22 23  2  0  0  0
 23 24  1  0  0  0
 24 25  2  0  0  0
 25 26  1  0  0  0
 26 18  1  0  0  0
 18 19  2  0  0  0
 18 20  1  0  0  0
 20  1  1  0  0  0
  1  2  2  0  0  0
  2  3  1  0  0  0
  3  6  1  0  0  0
  6  7  2  0  0  0
  7  8  1  0  0  0
  8  9  2  0  0  0
  9 10  1  0  0  0
 10 11  2  0  0  0
  3  4  2  0  0  0
  4  5  1  0  0  0
  5 12  1  0  0  0
 12 13  2  0  0  0
 13 14  1  0  0  0
 14 15  2  0  0  0
 15 16  1  0  0  0
 16 17  2  0  0  0
 26 27  2  0  0  0
 27 22  1  0  0  0
  5  1  1  0  0  0
 17 12  1  0  0  0
 11  6  1  0  0  0
 20 21  1  0  0  0
M  END
> <minimizedAffinity>
-9.15125

$$$$



 29 32  0  0  0  0  0  0  0  0999 V2000
  -17.0509   19.5156  -14.6852 C   0  0  0  0  0  0  0  0  0  0  0  0
  -16.5993   19.9459  -15.9142 C   0  0  0  0  0  0  0  0  0  0  0  0
  -17.3815   21.0806  -16.2451 C   0  0  0  0  0  0  0  0  0  0  0  0
  -18.2291   21.3669  -15.2479 N   0  0  0  0  0  0  0  0  0  0  0  0
  -17.8953   20.5299  -14.2245 N   0  0  0  0  0  0  0  0  0  0  0  0
  -17.3644   21.8669  -17.4857 C   0  0  0  0  0  0  0  0  0  0  0  0
  -16.6856   21.3909  -18.6188 C   0  0  0  0  0  0  0  0  0  0  0  0
  -16.6598   22.1297  -19.8047 C   0  0  0  0  0  0  0  0  0  0  0  0
  -17.3151   23.3561  -19.8754 C   0  0  0  0  0  0  0  0  0  0  0  0
  -17.9966   23.8427  -18.7624 C   0  0  0  0  0  0  0  0  0  0  0  0
  -18.0221   23.1034  -17.5751 C   0  0  0  0  0  0  0  0  0  0  0  0
  -18.2741   20.8916  -12.8955 C   0  0  0  0  0  0  0  0  0  0  0  0
  -18.9873   20.0124  -12.0700 C   0  0  0  0  0  0  0  0  0  0  0  0
  -19.3133   20.3843  -10.7622 C   0  0  0  0  0  0  0  0  0  0  0  0
  -18.9188   21.6257  -10.2663 C   0  0  0  0  0  0  0  0  0  0  0  0
  -18.1889   22.4966  -11.0721 C   0  0  0  0  0  0  0  0  0  0  0  0
  -17.8600   22.1301  -12.3790 C   0  0  0  0  0  0  0  0  0  0  0  0
  -15.7540   18.2682  -13.0662 C   0  0  0  0  0  0  0  0  0  0  0  0
  -15.1330   19.2253  -12.6213 O   0  0  0  0  0  0  0  0  0  0  0  0
  -16.7099   18.3148  -14.0705 N   0  0  0  0  0  0  0  0  0  0  0  0
  -17.4323   17.6049  -14.0398 H   0  0  0  0  0  0  0  0  0  0  0  0
  -14.5218   14.7301  -12.5842 C   0  0  0  0  0  0  0  0  0  0  0  0
  -15.1214   14.3819  -11.3685 C   0  0  0  0  0  0  0  0  0  0  0  0
  -15.9387   15.2957  -10.7006 C   0  0  0  0  0  0  0  0  0  0  0  0
  -16.1544   16.5656  -11.2399 C   0  0  0  0  0  0  0  0  0  0  0  0
  -15.5438   16.9272  -12.4490 C   0  0  0  0  0  0  0  0  0  0  0  0
  -14.7370   16.0012  -13.1252 C   0  0  0  0  0  0  0  0  0  0  0  0
  -13.0175   13.0284  -13.8377 N   0  0  0  0  0  0  0  0  0  0  0  0
  -13.6901   13.7847  -13.2702 C   0  0  0  0  0  0  0  0  0  0  0  0
 28 29  3  0  0  0
 29 22  1  0  0  0
 22 23  2  0  0  0
 23 24  1  0  0  0
 24 25  2  0  0  0
 25 26  1  0  0  0
 26 18  1  0  0  0
 18 19  2  0  0  0
 18 20  1  0  0  0
 20  1  1  0  0  0
  1  2  2  0  0  0
  2  3  1  0  0  0
  3  6  1  0  0  0
  6  7  2  0  0  0
  7  8  1  0  0  0
  8  9  2  0  0  0
  9 10  1  0  0  0
 10 11  2  0  0  0
  3  4  2  0  0  0
  4  5  1  0  0  0
  5 12  1  0  0  0
 12 13  2  0  0  0
 13 14  1  0  0  0
 14 15  2  0  0  0
 15 16  1  0  0  0
 16 17  2  0  0  0
 26 27  2  0  0  0
 27 22  1  0  0  0
  5  1  1  0  0  0
 17 12  1  0  0  0
 11  6  1  0  0  0
 20 21  1  0  0  0
M  END
> <minimizedAffinity>
-9.10093

$$$$



 29 32  0  0  0  0  0  0  0  0999 V2000
  -16.6728   19.9813  -12.2427 C   0  0  0  0  0  0  0  0  0  0  0  0
  -16.2759   21.0966  -12.9486 C   0  0  0  0  0  0  0  0  0  0  0  0
  -17.3014   22.0589  -12.7723 C   0  0  0  0  0  0  0  0  0  0  0  0
  -18.2501   21.5819  -11.9555 N   0  0  0  0  0  0  0  0  0  0  0  0
  -17.7734   20.3938  -11.4860 N   0  0  0  0  0  0  0  0  0  0  0  0
  -17.4141   23.3904  -13.3822 C   0  0  0  0  0  0  0  0  0  0  0  0
  -17.4500   24.5398  -12.5766 C   0  0  0  0  0  0  0  0  0  0  0  0
  -17.5590   25.8123  -13.1438 C   0  0  0  0  0  0  0  0  0  0  0  0
  -17.6317   25.9543  -14.5269 C   0  0  0  0  0  0  0  0  0  0  0  0
  -17.5940   24.8256  -15.3422 C   0  0  0  0  0  0  0  0  0  0  0  0
  -17.4854   23.5517  -14.7745 C   0  0  0  0  0  0  0  0  0  0  0  0
  -18.3081   19.8779  -10.2659 C   0  0  0  0  0  0  0  0  0  0  0  0
  -18.8391   18.5837  -10.1859 C   0  0  0  0  0  0  0  0  0  0  0  0
  -19.3238   18.0968   -8.9682 C   0  0  0  0  0  0  0  0  0  0  0  0
  -19.2688   18.8895   -7.8231 C   0  0  0  0  0  0  0  0  0  0  0  0
  -18.7208   20.1686   -7.8883 C   0  0  0  0  0  0  0  0  0  0  0  0
  -18.2347   20.6600   -9.1018 C   0  0  0  0  0  0  0  0  0  0  0  0
  -15.9730   18.0351  -13.5003 C   0  0  0  0  0  0  0  0  0  0  0  0
  -16.3747   18.4242  -14.5897 O   0  0  0  0  0  0  0  0  0  0  0  0
  -16.0726   18.7275  -12.3022 N   0  0  0  0  0  0  0  0  0  0  0  0
  -15.3563   18.5391  -11.6108 H   0  0  0  0  0  0  0  0  0  0  0  0
  -13.5354   15.2758  -14.3448 C   0  0  0  0  0  0  0  0  0  0  0  0
  -13.8406   14.3174  -13.3718 C   0  0  0  0  0  0  0  0  0  0  0  0
  -14.8492   14.5604  -12.4376 C   0  0  0  0  0  0  0  0  0  0  0  0
  -15.5528   15.7663  -12.4657 C   0  0  0  0  0  0  0  0  0  0  0  0
  -15.2414   16.7379  -13.4271 C   0  0  0  0  0  0  0  0  0  0  0  0
  -14.2390   16.4837  -14.3739 C   0  0  0  0  0  0  0  0  0  0  0  0
  -11.6790   14.8131  -16.0968 N   0  0  0  0  0  0  0  0  0  0  0  0
  -12.5042   15.0176  -15.3071 C   0  0  0  0  0  0  0  0  0  0  0  0
 28 29  3  0  0  0
 29 22  1  0  0  0
 22 23  2  0  0  0
 23 24  1  0  0  0
 24 25  2  0  0  0
 25 26  1  0  0  0
 26 18  1  0  0  0
 18 19  2  0  0  0
 18 20  1  0  0  0
 20  1  1  0  0  0
  1  2  2  0  0  0
  2  3  1  0  0  0
  3  6  1  0  0  0
  6  7  2  0  0  0
  7  8  1  0  0  0
  8  9  2  0  0  0
  9 10  1  0  0  0
 10 11  2  0  0  0
  3  4  2  0  0  0
  4  5  1  0  0  0
  5 12  1  0  0  0
 12 13  2  0  0  0
 13 14  1  0  0  0
 14 15  2  0  0  0
 15 16  1  0  0  0
 16 17  2  0  0  0
 26 27  2  0  0  0
 27 22  1  0  0  0
  5  1  1  0  0  0
 17 12  1  0  0  0
 11  6  1  0  0  0
 20 21  1  0  0  0
M  END
> <minimizedAffinity>
-8.98320

$$$$



 29 32  0  0  0  0  0  0  0  0999 V2000
  -16.7381   19.6048  -15.5452 C   0  0  0  0  0  0  0  0  0  0  0  0
  -16.3086   20.1670  -16.7281 C   0  0  0  0  0  0  0  0  0  0  0  0
  -17.1452   21.2879  -16.9570 C   0  0  0  0  0  0  0  0  0  0  0  0
  -18.0053   21.4405  -15.9413 N   0  0  0  0  0  0  0  0  0  0  0  0
  -17.6307   20.5306  -14.9973 N   0  0  0  0  0  0  0  0  0  0  0  0
  -17.1669   22.1842  -18.1206 C   0  0  0  0  0  0  0  0  0  0  0  0
  -17.7217   23.4698  -18.0164 C   0  0  0  0  0  0  0  0  0  0  0  0
  -17.7506   24.3318  -19.1160 C   0  0  0  0  0  0  0  0  0  0  0  0
  -17.2226   23.9208  -20.3369 C   0  0  0  0  0  0  0  0  0  0  0  0
  -16.6649   22.6502  -20.4582 C   0  0  0  0  0  0  0  0  0  0  0  0
  -16.6363   21.7871  -19.3576 C   0  0  0  0  0  0  0  0  0  0  0  0
  -18.0261   20.7506  -13.6424 C   0  0  0  0  0  0  0  0  0  0  0  0
  -17.7212   21.9429  -12.9725 C   0  0  0  0  0  0  0  0  0  0  0  0
  -18.1523   22.1404  -11.6572 C   0  0  0  0  0  0  0  0  0  0  0  0
  -18.9001   21.1591  -11.0086 C   0  0  0  0  0  0  0  0  0  0  0  0
  -19.2281   19.9806  -11.6750 C   0  0  0  0  0  0  0  0  0  0  0  0
  -18.8007   19.7782  -12.9891 C   0  0  0  0  0  0  0  0  0  0  0  0
  -15.2260   18.2560  -14.2211 C   0  0  0  0  0  0  0  0  0  0  0  0
  -14.5039   19.1761  -13.8582 O   0  0  0  0  0  0  0  0  0  0  0  0
  -16.3389   18.3708  -15.0414 N   0  0  0  0  0  0  0  0  0  0  0  0
  -17.0698   17.6815  -14.9101 H   0  0  0  0  0  0  0  0  0  0  0  0
  -15.4471   15.1783  -12.0422 C   0  0  0  0  0  0  0  0  0  0  0  0
  -14.5000   14.3379  -12.6381 C   0  0  0  0  0  0  0  0  0  0  0  0
  -13.7761   14.7715  -13.7504 C   0  0  0  0  0  0  0  0  0  0  0  0
  -14.0011   16.0445  -14.2783 C   0  0  0  0  0  0  0  0  0  0  0  0
  -14.9600   16.8858  -13.6968 C   0  0  0  0  0  0  0  0  0  0  0  0
  -15.6733   16.4532  -12.5699 C   0  0  0  0  0  0  0  0  0  0  0  0
  -16.7858   14.3619   -9.9755 N   0  0  0  0  0  0  0  0  0  0  0  0
  -16.1816   14.7311  -10.8949 C   0  0  0  0  0  0  0  0  0  0  0  0
 28 29  3  0  0  0
 29 22  1  0  0  0
 22 23  2  0  0  0
 23 24  1  0  0  0
 24 25  2  0  0  0
 25 26  1  0  0  0
 26 18  1  0  0  0
 18 19  2  0  0  0
 18 20  1  0  0  0
 20  1  1  0  0  0
  1  2  2  0  0  0
  2  3  1  0  0  0
  3  6  1  0  0  0
  6  7  2  0  0  0
  7  8  1  0  0  0
  8  9  2  0  0  0
  9 10  1  0  0  0
 10 11  2  0  0  0
  3  4  2  0  0  0
  4  5  1  0  0  0
  5 12  1  0  0  0
 12 13  2  0  0  0
 13 14  1  0  0  0
 14 15  2  0  0  0
 15 16  1  0  0  0
 16 17  2  0  0  0
 26 27  2  0  0  0
 27 22  1  0  0  0
  5  1  1  0  0  0
 17 12  1  0  0  0
 11  6  1  0  0  0
 20 21  1  0  0  0
M  END
> <minimizedAffinity>
-8.89593

$$$$



 29 32  0  0  0  0  0  0  0  0999 V2000
  -16.3421   19.5989  -14.5250 C   0  0  0  0  0  0  0  0  0  0  0  0
  -16.2237   18.2280  -14.4456 C   0  0  0  0  0  0  0  0  0  0  0  0
  -15.9376   17.9361  -13.0885 C   0  0  0  0  0  0  0  0  0  0  0  0
  -15.9368   19.0616  -12.3618 N   0  0  0  0  0  0  0  0  0  0  0  0
  -16.3684   20.0460  -13.2008 N   0  0  0  0  0  0  0  0  0  0  0  0
  -15.6354   16.6326  -12.4825 C   0  0  0  0  0  0  0  0  0  0  0  0
  -14.8620   15.6888  -13.1771 C   0  0  0  0  0  0  0  0  0  0  0  0
  -14.5688   14.4443  -12.6130 C   0  0  0  0  0  0  0  0  0  0  0  0
  -15.0438   14.1259  -11.3436 C   0  0  0  0  0  0  0  0  0  0  0  0
  -15.8097   15.0510  -10.6382 C   0  0  0  0  0  0  0  0  0  0  0  0
  -16.1036   16.2966  -11.2029 C   0  0  0  0  0  0  0  0  0  0  0  0
  -16.9214   21.2339  -12.6320 C   0  0  0  0  0  0  0  0  0  0  0  0
  -17.8236   21.1844  -11.5611 C   0  0  0  0  0  0  0  0  0  0  0  0
  -18.3205   22.3672  -11.0051 C   0  0  0  0  0  0  0  0  0  0  0  0
  -17.9109   23.6031  -11.5026 C   0  0  0  0  0  0  0  0  0  0  0  0
  -16.9960   23.6621  -12.5514 C   0  0  0  0  0  0  0  0  0  0  0  0
  -16.4960   22.4839  -13.1103 C   0  0  0  0  0  0  0  0  0  0  0  0
  -17.6340   20.7965  -16.1850 C   0  0  0  0  0  0  0  0  0  0  0  0
  -18.7274   20.6162  -15.6639 O   0  0  0  0  0  0  0  0  0  0  0  0
  -16.4169   20.3401  -15.7002 N   0  0  0  0  0  0  0  0  0  0  0  0
  -15.6011   20.8930  -15.9352 H   0  0  0  0  0  0  0  0  0  0  0  0
  -16.3223   22.2723  -19.4053 C   0  0  0  0  0  0  0  0  0  0  0  0
  -17.3207   23.2005  -19.7216 C   0  0  0  0  0  0  0  0  0  0  0  0
  -18.4256   23.3579  -18.8828 C   0  0  0  0  0  0  0  0  0  0  0  0
  -18.5427   22.5824  -17.7275 C   0  0  0  0  0  0  0  0  0  0  0  0
  -17.5548   21.6388  -17.4128 C   0  0  0  0  0  0  0  0  0  0  0  0
  -16.4384   21.4951  -18.2488 C   0  0  0  0  0  0  0  0  0  0  0  0
  -14.2624   21.9847  -20.9557 N   0  0  0  0  0  0  0  0  0  0  0  0
  -15.1855   22.1207  -20.2659 C   0  0  0  0  0  0  0  0  0  0  0  0
 28 29  3  0  0  0
 29 22  1  0  0  0
 22 23  2  0  0  0
 23 24  1  0  0  0
 24 25  2  0  0  0
 25 26  1  0  0  0
 26 18  1  0  0  0
 18 19  2  0  0  0
 18 20  1  0  0  0
 20  1  1  0  0  0
  1  2  2  0  0  0
  2  3  1  0  0  0
  3  6  1  0  0  0
  6  7  2  0  0  0
  7  8  1  0  0  0
  8  9  2  0  0  0
  9 10  1  0  0  0
 10 11  2  0  0  0
  3  4  2  0  0  0
  4  5  1  0  0  0
  5 12  1  0  0  0
 12 13  2  0  0  0
 13 14  1  0  0  0
 14 15  2  0  0  0
 15 16  1  0  0  0
 16 17  2  0  0  0
 26 27  2  0  0  0
 27 22  1  0  0  0
  5  1  1  0  0  0
 17 12  1  0  0  0
 11  6  1  0  0  0
 20 21  1  0  0  0
M  END
> <minimizedAffinity>
-8.81659

$$$$
